<?xml version="1.0"?>
<trips>
	<trip id="0" depart="0.00" from="3155" to="3734" />
</trips>
