<?xml version="1.0" encoding="UTF-8"?>

<!-- generated on Mon May 22 19:13:31 2017 by SUMO netgenerate Version 0.28.0
<?xml version="1.0" encoding="UTF-8"?>

<configuration xmlns:xsi="http://www.w3.org/2001/XMLSchema-instance" xsi:noNamespaceSchemaLocation="http://sumo.dlr.de/xsd/netgenerateConfiguration.xsd">

    <random_network>
        <rand value="true"/>
        <rand.iterations value="60"/>
        <rand.connectivity value="1"/>
    </random_network>

    <output>
        <output-file value="HighConnectivity.net.xml"/>
    </output>

</configuration>
-->

<net version="0.27" xmlns:xsi="http://www.w3.org/2001/XMLSchema-instance" xsi:noNamespaceSchemaLocation="http://sumo.dlr.de/xsd/net_file.xsd">

    <location netOffset="568.70,565.34" convBoundary="0.00,0.00,1635.44,1586.82" origBoundary="-568.70,-565.34,1066.74,1021.48" projParameter="!"/>

    <edge id=":1_0" function="internal">
        <lane id=":1_0_0" index="0" speed="13.90" length="5.38" shape="567.14,571.20 566.90,569.68 566.23,568.74 565.13,568.40 563.61,568.64"/>
    </edge>
    <edge id=":1_1" function="internal">
        <lane id=":1_1_0" index="0" speed="13.90" length="10.00" shape="567.14,571.20 567.10,568.24 566.99,566.20 566.69,564.19 566.03,561.30"/>
    </edge>
    <edge id=":1_2" function="internal">
        <lane id=":1_2_0" index="0" speed="13.90" length="5.74" shape="567.14,571.20 567.51,567.90 568.63,565.76"/>
    </edge>
    <edge id=":1_3" function="internal">
        <lane id=":1_3_0" index="0" speed="13.90" length="2.41" shape="567.14,571.20 567.95,569.95 568.77,569.53"/>
    </edge>
    <edge id=":1_16" function="internal">
        <lane id=":1_16_0" index="0" speed="13.90" length="5.59" shape="568.63,565.76 568.72,565.58 570.78,564.24 573.69,563.88"/>
    </edge>
    <edge id=":1_17" function="internal">
        <lane id=":1_17_0" index="0" speed="13.90" length="2.41" shape="568.77,569.53 569.60,569.93 570.44,571.15"/>
    </edge>
    <edge id=":1_4" function="internal">
        <lane id=":1_4_0" index="0" speed="13.90" length="5.81" shape="573.56,567.17 572.17,567.38 571.19,568.11 570.61,569.37 570.44,571.15"/>
    </edge>
    <edge id=":1_5" function="internal">
        <lane id=":1_5_0" index="0" speed="13.90" length="10.15" shape="573.56,567.17 570.57,567.11 568.50,567.28 566.48,567.76 563.61,568.64"/>
    </edge>
    <edge id=":1_6" function="internal">
        <lane id=":1_6_0" index="0" speed="13.90" length="10.35" shape="573.56,567.17 570.78,566.72 568.59,565.59 567.01,563.78 566.03,561.30"/>
    </edge>
    <edge id=":1_7" function="internal">
        <lane id=":1_7_0" index="0" speed="13.90" length="4.82" shape="573.56,567.17 572.36,566.30 571.98,565.46 572.42,564.65 573.69,563.88"/>
    </edge>
    <edge id=":1_8" function="internal">
        <lane id=":1_8_0" index="0" speed="13.90" length="6.03" shape="569.24,560.53 569.81,561.94 570.74,562.97 572.03,563.61 573.69,563.88"/>
    </edge>
    <edge id=":1_9" function="internal">
        <lane id=":1_9_0" index="0" speed="13.90" length="10.72" shape="569.24,560.53 569.91,563.54 570.25,565.79 570.38,568.07 570.44,571.15"/>
    </edge>
    <edge id=":1_10" function="internal">
        <lane id=":1_10_0" index="0" speed="13.90" length="5.16" shape="569.24,560.53 569.42,563.26 568.55,565.52"/>
    </edge>
    <edge id=":1_11" function="internal">
        <lane id=":1_11_0" index="0" speed="13.90" length="2.41" shape="569.24,560.53 568.73,561.93 568.02,562.52"/>
    </edge>
    <edge id=":1_18" function="internal">
        <lane id=":1_18_0" index="0" speed="13.90" length="5.92" shape="568.55,565.52 566.61,567.32 563.61,568.64"/>
    </edge>
    <edge id=":1_19" function="internal">
        <lane id=":1_19_0" index="0" speed="13.90" length="2.41" shape="568.02,562.52 567.13,562.31 566.03,561.30"/>
    </edge>
    <edge id=":1_12" function="internal">
        <lane id=":1_12_0" index="0" speed="13.90" length="6.02" shape="562.63,565.49 564.38,564.75 565.53,563.81 566.08,562.66 566.03,561.30"/>
    </edge>
    <edge id=":1_13" function="internal">
        <lane id=":1_13_0" index="0" speed="13.90" length="11.25" shape="562.63,565.49 565.67,564.59 568.08,564.06 570.52,563.84 573.69,563.88"/>
    </edge>
    <edge id=":1_14" function="internal">
        <lane id=":1_14_0" index="0" speed="13.90" length="11.91" shape="562.63,565.49 566.00,564.95 568.43,565.72 569.91,567.78 570.44,571.15"/>
    </edge>
    <edge id=":1_15" function="internal">
        <lane id=":1_15_0" index="0" speed="13.90" length="4.82" shape="562.63,565.49 564.06,565.91 564.70,566.58 564.55,567.49 563.61,568.64"/>
    </edge>
    <edge id=":10_0" function="internal">
        <lane id=":10_0_0" index="0" speed="13.90" length="5.90" shape="405.09,620.72 404.74,619.36 403.89,618.46 402.54,618.02 400.71,618.04"/>
    </edge>
    <edge id=":10_1" function="internal">
        <lane id=":10_1_0" index="0" speed="13.90" length="10.20" shape="405.09,620.72 404.83,617.73 404.42,615.68 403.69,613.71 402.46,610.97"/>
    </edge>
    <edge id=":10_2" function="internal">
        <lane id=":10_2_0" index="0" speed="13.90" length="10.19" shape="405.09,620.72 405.25,617.90 406.13,615.64 407.75,613.95 410.09,612.83"/>
    </edge>
    <edge id=":10_3" function="internal">
        <lane id=":10_3_0" index="0" speed="13.90" length="4.82" shape="405.09,620.72 405.83,619.43 406.63,618.96 407.48,619.32 408.39,620.50"/>
    </edge>
    <edge id=":10_4" function="internal">
        <lane id=":10_4_0" index="0" speed="13.90" length="5.73" shape="411.07,615.98 409.81,616.60 408.94,617.56 408.46,618.86 408.39,620.50"/>
    </edge>
    <edge id=":10_5" function="internal">
        <lane id=":10_5_0" index="0" speed="13.90" length="10.59" shape="411.07,615.98 408.14,616.84 405.96,617.34 403.75,617.67 400.71,618.04"/>
    </edge>
    <edge id=":10_6" function="internal">
        <lane id=":10_6_0" index="0" speed="13.90" length="5.50" shape="411.07,615.98 408.45,616.31 406.14,615.59 405.82,615.30"/>
    </edge>
    <edge id=":10_7" function="internal">
        <lane id=":10_7_0" index="0" speed="13.90" length="2.64" shape="411.07,615.98 409.65,615.56 409.01,614.89 409.04,614.67"/>
    </edge>
    <edge id=":10_16" function="internal">
        <lane id=":10_16_0" index="0" speed="13.90" length="5.55" shape="405.82,615.30 404.14,613.81 402.46,610.97"/>
    </edge>
    <edge id=":10_17" function="internal">
        <lane id=":10_17_0" index="0" speed="13.90" length="2.18" shape="409.04,614.67 409.16,613.98 410.09,612.83"/>
    </edge>
    <edge id=":10_8" function="internal">
        <lane id=":10_8_0" index="0" speed="13.90" length="6.21" shape="405.46,609.61 406.45,611.34 407.55,612.45 408.76,612.95 410.09,612.83"/>
    </edge>
    <edge id=":10_9" function="internal">
        <lane id=":10_9_0" index="0" speed="13.90" length="11.36" shape="405.46,609.61 406.74,612.53 407.57,614.89 408.08,617.33 408.39,620.50"/>
    </edge>
    <edge id=":10_10" function="internal">
        <lane id=":10_10_0" index="0" speed="13.90" length="12.04" shape="405.46,609.61 406.43,612.93 405.96,615.45 404.05,617.15 400.71,618.04"/>
    </edge>
    <edge id=":10_11" function="internal">
        <lane id=":10_11_0" index="0" speed="13.90" length="4.82" shape="405.46,609.61 405.22,611.07 404.64,611.79 403.72,611.75 402.46,610.97"/>
    </edge>
    <edge id=":10_12" function="internal">
        <lane id=":10_12_0" index="0" speed="13.90" length="5.42" shape="400.32,614.76 401.82,614.36 402.68,613.59 402.89,612.46 402.46,610.97"/>
    </edge>
    <edge id=":10_13" function="internal">
        <lane id=":10_13_0" index="0" speed="13.90" length="9.97" shape="400.32,614.76 410.09,612.83"/>
    </edge>
    <edge id=":10_14" function="internal">
        <lane id=":10_14_0" index="0" speed="13.90" length="5.87" shape="400.32,614.76 403.68,614.78 406.01,615.69"/>
    </edge>
    <edge id=":10_15" function="internal">
        <lane id=":10_15_0" index="0" speed="13.90" length="2.41" shape="400.32,614.76 401.64,615.43 402.15,616.20"/>
    </edge>
    <edge id=":10_18" function="internal">
        <lane id=":10_18_0" index="0" speed="13.90" length="5.54" shape="406.01,615.69 406.15,615.74 407.71,617.65 408.39,620.50"/>
    </edge>
    <edge id=":10_19" function="internal">
        <lane id=":10_19_0" index="0" speed="13.90" length="2.41" shape="402.15,616.20 401.84,617.07 400.71,618.04"/>
    </edge>
    <edge id=":115_0" function="internal">
        <lane id=":115_0_0" index="0" speed="13.90" length="5.82" shape="739.69,255.94 738.71,254.50 737.67,253.97 736.58,254.36 735.42,255.67"/>
    </edge>
    <edge id=":115_1" function="internal">
        <lane id=":115_1_0" index="0" speed="13.90" length="11.00" shape="739.69,255.94 738.12,253.40 736.24,251.41 734.05,249.98 731.54,249.11"/>
    </edge>
    <edge id=":115_2" function="internal">
        <lane id=":115_2_0" index="0" speed="13.90" length="2.29" shape="739.69,255.94 739.87,254.47 740.36,253.82"/>
    </edge>
    <edge id=":115_9" function="internal">
        <lane id=":115_9_0" index="0" speed="13.90" length="2.53" shape="740.36,253.82 740.43,253.73 741.35,253.73 742.64,254.47"/>
    </edge>
    <edge id=":115_3" function="internal">
        <lane id=":115_3_0" index="0" speed="13.90" length="13.94" shape="732.25,245.89 735.48,246.99 738.28,248.79 740.67,251.29 742.64,254.47"/>
    </edge>
    <edge id=":115_4" function="internal">
        <lane id=":115_4_0" index="0" speed="13.90" length="7.15" shape="732.25,245.89 735.62,247.20 737.27,249.27 737.25,250.16"/>
    </edge>
    <edge id=":115_5" function="internal">
        <lane id=":115_5_0" index="0" speed="13.90" length="2.65" shape="732.25,245.89 733.28,246.96 733.50,247.85 733.35,248.04"/>
    </edge>
    <edge id=":115_10" function="internal">
        <lane id=":115_10_0" index="0" speed="13.90" length="5.94" shape="737.25,250.16 737.21,252.09 735.42,255.67"/>
    </edge>
    <edge id=":115_11" function="internal">
        <lane id=":115_11_0" index="0" speed="13.90" length="2.17" shape="733.35,248.04 732.92,248.57 731.54,249.11"/>
    </edge>
    <edge id=":115_6" function="internal">
        <lane id=":115_6_0" index="0" speed="13.90" length="6.16" shape="732.68,253.84 733.58,252.08 733.70,250.71 733.01,249.72 731.54,249.11"/>
    </edge>
    <edge id=":115_7" function="internal">
        <lane id=":115_7_0" index="0" speed="13.90" length="13.59" shape="732.68,253.84 735.37,250.78 737.93,249.86 740.35,251.09 742.64,254.47"/>
    </edge>
    <edge id=":115_8" function="internal">
        <lane id=":115_8_0" index="0" speed="13.90" length="4.82" shape="732.68,253.84 734.05,253.27 734.97,253.38 735.42,254.19 735.42,255.67"/>
    </edge>
    <edge id=":118_0" function="internal">
        <lane id=":118_0_0" index="0" speed="13.90" length="12.40" shape="342.40,243.31 339.20,244.20 336.37,244.52 333.50,244.48 330.15,244.25"/>
    </edge>
    <edge id=":118_1" function="internal">
        <lane id=":118_1_0" index="0" speed="13.90" length="5.12" shape="342.40,243.31 339.84,243.61 337.45,242.76"/>
    </edge>
    <edge id=":118_2" function="internal">
        <lane id=":118_2_0" index="0" speed="13.90" length="2.56" shape="342.40,243.31 340.96,242.94 340.30,242.29 340.32,242.14"/>
    </edge>
    <edge id=":118_9" function="internal">
        <lane id=":118_9_0" index="0" speed="13.90" length="7.34" shape="337.45,242.76 337.35,242.72 334.93,240.64 332.58,237.35"/>
    </edge>
    <edge id=":118_10" function="internal">
        <lane id=":118_10_0" index="0" speed="13.90" length="2.26" shape="340.32,242.14 340.42,241.38 341.31,240.19"/>
    </edge>
    <edge id=":118_3" function="internal">
        <lane id=":118_3_0" index="0" speed="13.90" length="7.95" shape="335.41,235.66 337.00,237.99 338.51,239.52 339.95,240.26 341.31,240.19"/>
    </edge>
    <edge id=":118_4" function="internal">
        <lane id=":118_4_0" index="0" speed="13.90" length="14.37" shape="335.41,235.66 337.16,239.69 336.87,242.47 334.53,243.98 330.15,244.25"/>
    </edge>
    <edge id=":118_5" function="internal">
        <lane id=":118_5_0" index="0" speed="13.90" length="4.82" shape="335.41,235.66 335.34,237.15 334.84,237.92 333.92,237.99 332.58,237.35"/>
    </edge>
    <edge id=":118_6" function="internal">
        <lane id=":118_6_0" index="0" speed="13.90" length="6.03" shape="330.37,240.96 332.21,240.85 333.19,240.21 333.31,239.04 332.58,237.35"/>
    </edge>
    <edge id=":118_7" function="internal">
        <lane id=":118_7_0" index="0" speed="13.90" length="11.09" shape="330.37,240.96 333.52,241.21 335.94,241.32 338.31,241.05 341.31,240.19"/>
    </edge>
    <edge id=":118_8" function="internal">
        <lane id=":118_8_0" index="0" speed="13.90" length="2.41" shape="330.37,240.96 331.55,241.86 331.90,242.71"/>
    </edge>
    <edge id=":118_11" function="internal">
        <lane id=":118_11_0" index="0" speed="13.90" length="2.41" shape="331.90,242.71 331.44,243.51 330.15,244.25"/>
    </edge>
    <edge id=":12_0" function="internal">
        <lane id=":12_0_0" index="0" speed="13.90" length="14.55" shape="646.74,396.33 644.31,393.59 641.51,391.35 638.40,389.52 635.03,388.01"/>
    </edge>
    <edge id=":12_1" function="internal">
        <lane id=":12_1_0" index="0" speed="13.90" length="16.21" shape="646.74,396.33 644.56,393.06 642.52,389.43 640.71,385.67 639.19,382.03"/>
    </edge>
    <edge id=":12_2" function="internal">
        <lane id=":12_2_0" index="0" speed="13.90" length="7.19" shape="646.74,396.33 644.98,392.96 644.53,389.60"/>
    </edge>
    <edge id=":12_3" function="internal">
        <lane id=":12_3_0" index="0" speed="13.90" length="6.03" shape="646.74,396.33 644.93,392.81 645.18,390.76"/>
    </edge>
    <edge id=":12_4" function="internal">
        <lane id=":12_4_0" index="0" speed="13.90" length="2.55" shape="646.74,396.33 646.67,394.84 647.08,394.02 647.22,393.99"/>
    </edge>
    <edge id=":12_25" function="internal">
        <lane id=":12_25_0" index="0" speed="13.90" length="8.69" shape="644.53,389.60 644.50,389.38 645.33,385.56 647.45,381.53"/>
    </edge>
    <edge id=":12_26" function="internal">
        <lane id=":12_26_0" index="0" speed="13.90" length="8.69" shape="645.18,390.76 645.27,390.07 647.76,388.08 652.41,386.86"/>
    </edge>
    <edge id=":12_27" function="internal">
        <lane id=":12_27_0" index="0" speed="13.90" length="2.27" shape="647.22,393.99 647.99,393.86 649.39,394.36"/>
    </edge>
    <edge id=":12_5" function="internal">
        <lane id=":12_5_0" index="0" speed="13.90" length="7.14" shape="652.89,390.13 650.42,390.72 649.02,391.62 648.68,392.84 649.39,394.36"/>
    </edge>
    <edge id=":12_6" function="internal">
        <lane id=":12_6_0" index="0" speed="13.90" length="18.12" shape="652.89,390.13 648.66,390.36 643.85,390.03 639.08,389.22 635.03,388.01"/>
    </edge>
    <edge id=":12_7" function="internal">
        <lane id=":12_7_0" index="0" speed="13.90" length="17.39" shape="652.89,390.13 648.27,390.17 644.45,388.84 641.42,386.13 639.19,382.03"/>
    </edge>
    <edge id=":12_8" function="internal">
        <lane id=":12_8_0" index="0" speed="13.90" length="15.81" shape="652.89,390.13 647.90,390.27 645.33,388.89 645.18,385.97 647.45,381.53"/>
    </edge>
    <edge id=":12_9" function="internal">
        <lane id=":12_9_0" index="0" speed="13.90" length="4.82" shape="652.89,390.13 651.54,389.49 651.02,388.73 651.30,387.86 652.41,386.86"/>
    </edge>
    <edge id=":12_10" function="internal">
        <lane id=":12_10_0" index="0" speed="13.90" length="6.44" shape="650.19,383.36 649.27,385.17 649.33,386.36 650.38,386.92 652.41,386.86"/>
    </edge>
    <edge id=":12_11" function="internal">
        <lane id=":12_11_0" index="0" speed="13.90" length="11.80" shape="650.19,383.36 648.55,386.43 647.87,389.29 648.15,391.93 649.39,394.36"/>
    </edge>
    <edge id=":12_12" function="internal">
        <lane id=":12_12_0" index="0" speed="13.90" length="17.37" shape="650.19,383.36 647.13,386.82 643.59,388.74 639.55,389.14 635.03,388.01"/>
    </edge>
    <edge id=":12_13" function="internal">
        <lane id=":12_13_0" index="0" speed="13.90" length="15.91" shape="650.19,383.36 647.01,387.02 644.11,388.02 641.51,386.36 639.19,382.03"/>
    </edge>
    <edge id=":12_14" function="internal">
        <lane id=":12_14_0" index="0" speed="13.90" length="4.82" shape="650.19,383.36 648.82,383.93 647.91,383.82 647.45,383.02 647.45,381.53"/>
    </edge>
    <edge id=":12_15" function="internal">
        <lane id=":12_15_0" index="0" speed="13.90" length="7.50" shape="642.27,380.85 643.37,382.90 644.59,383.70 645.96,383.24 647.45,381.53"/>
    </edge>
    <edge id=":12_16" function="internal">
        <lane id=":12_16_0" index="0" speed="13.90" length="12.88" shape="642.27,380.85 643.93,383.89 646.17,385.90 649.00,386.89 652.41,386.86"/>
    </edge>
    <edge id=":12_17" function="internal">
        <lane id=":12_17_0" index="0" speed="13.90" length="15.31" shape="642.27,380.85 643.72,384.37 645.39,387.85 647.27,391.21 649.39,394.36"/>
    </edge>
    <edge id=":12_18" function="internal">
        <lane id=":12_18_0" index="0" speed="13.90" length="6.42" shape="642.27,380.85 643.52,385.74 643.16,387.06"/>
    </edge>
    <edge id=":12_19" function="internal">
        <lane id=":12_19_0" index="0" speed="13.90" length="2.41" shape="642.27,380.85 641.94,382.30 641.32,382.98"/>
    </edge>
    <edge id=":12_28" function="internal">
        <lane id=":12_28_0" index="0" speed="13.90" length="9.54" shape="643.16,387.06 642.74,388.56 639.90,389.32 635.03,388.01"/>
    </edge>
    <edge id=":12_29" function="internal">
        <lane id=":12_29_0" index="0" speed="13.90" length="2.41" shape="641.32,382.98 640.40,382.89 639.19,382.03"/>
    </edge>
    <edge id=":12_20" function="internal">
        <lane id=":12_20_0" index="0" speed="13.90" length="6.48" shape="636.25,384.94 638.23,385.47 639.38,385.17 639.70,384.02 639.19,382.03"/>
    </edge>
    <edge id=":12_21" function="internal">
        <lane id=":12_21_0" index="0" speed="13.90" length="12.82" shape="636.25,384.94 639.59,385.78 642.57,385.49 645.19,384.07 647.45,381.53"/>
    </edge>
    <edge id=":12_22" function="internal">
        <lane id=":12_22_0" index="0" speed="13.90" length="16.42" shape="636.25,384.94 640.04,386.12 644.22,386.87 648.45,387.13 652.41,386.86"/>
    </edge>
    <edge id=":12_23" function="internal">
        <lane id=":12_23_0" index="0" speed="13.90" length="16.34" shape="636.25,384.94 639.84,386.63 643.44,388.84 646.73,391.45 649.39,394.36"/>
    </edge>
    <edge id=":12_24" function="internal">
        <lane id=":12_24_0" index="0" speed="13.90" length="4.82" shape="636.25,384.94 637.09,386.17 637.17,387.08 636.48,387.70 635.03,388.01"/>
    </edge>
    <edge id=":122_0" function="internal">
        <lane id=":122_0_0" index="0" speed="13.90" length="4.79" shape="1014.64,355.87 1013.35,355.86 1012.31,356.23 1011.50,356.99 1010.93,358.15"/>
    </edge>
    <edge id=":122_1" function="internal">
        <lane id=":122_1_0" index="0" speed="13.90" length="9.03" shape="1014.64,355.87 1012.26,355.23 1010.41,354.09 1009.09,352.45 1008.31,350.30"/>
    </edge>
    <edge id=":122_2" function="internal">
        <lane id=":122_2_0" index="0" speed="13.90" length="4.82" shape="1014.64,355.87 1013.54,354.87 1013.25,354.00 1013.78,353.24 1015.12,352.61"/>
    </edge>
    <edge id=":122_3" function="internal">
        <lane id=":122_3_0" index="0" speed="13.90" length="5.00" shape="1011.53,349.61 1011.96,350.75 1012.70,351.63 1013.76,352.25 1015.12,352.61"/>
    </edge>
    <edge id=":122_4" function="internal">
        <lane id=":122_4_0" index="0" speed="13.90" length="8.75" shape="1011.53,349.61 1012.01,352.14 1012.08,353.92 1011.72,355.69 1010.93,358.15"/>
    </edge>
    <edge id=":122_5" function="internal">
        <lane id=":122_5_0" index="0" speed="13.90" length="2.51" shape="1011.53,349.61 1010.99,350.99 1010.27,351.57 1010.17,351.54"/>
    </edge>
    <edge id=":122_9" function="internal">
        <lane id=":122_9_0" index="0" speed="13.90" length="2.31" shape="1010.17,351.54 1009.37,351.34 1008.31,350.30"/>
    </edge>
    <edge id=":122_6" function="internal">
        <lane id=":122_6_0" index="0" speed="13.90" length="6.96" shape="1007.80,357.09 1008.44,355.14 1008.73,353.74 1008.68,352.31 1008.31,350.30"/>
    </edge>
    <edge id=":122_7" function="internal">
        <lane id=":122_7_0" index="0" speed="13.90" length="4.73" shape="1007.80,357.09 1008.93,354.82 1010.52,353.32"/>
    </edge>
    <edge id=":122_8" function="internal">
        <lane id=":122_8_0" index="0" speed="13.90" length="2.41" shape="1007.80,357.09 1008.98,356.18 1009.89,356.05"/>
    </edge>
    <edge id=":122_10" function="internal">
        <lane id=":122_10_0" index="0" speed="13.90" length="4.73" shape="1010.52,353.32 1012.59,352.58 1015.12,352.61"/>
    </edge>
    <edge id=":122_11" function="internal">
        <lane id=":122_11_0" index="0" speed="13.90" length="2.41" shape="1009.89,356.05 1010.54,356.71 1010.93,358.15"/>
    </edge>
    <edge id=":124_0" function="internal">
        <lane id=":124_0_0" index="0" speed="13.90" length="9.19" shape="1094.40,641.41 1092.05,640.19 1089.82,639.65 1087.72,639.80 1085.75,640.62"/>
    </edge>
    <edge id=":124_1" function="internal">
        <lane id=":124_1_0" index="0" speed="13.90" length="12.64" shape="1094.40,641.41 1091.58,639.54 1089.22,637.78 1087.00,635.86 1084.61,633.47"/>
    </edge>
    <edge id=":124_2" function="internal">
        <lane id=":124_2_0" index="0" speed="13.90" length="13.17" shape="1094.40,641.41 1091.43,638.87 1090.48,636.36 1091.54,633.91 1094.62,631.50"/>
    </edge>
    <edge id=":124_3" function="internal">
        <lane id=":124_3_0" index="0" speed="13.90" length="4.82" shape="1094.40,641.41 1093.81,640.05 1093.91,639.13 1094.70,638.66 1096.19,638.64"/>
    </edge>
    <edge id=":124_4" function="internal">
        <lane id=":124_4_0" index="0" speed="13.90" length="5.71" shape="1096.29,634.34 1094.95,635.39 1094.49,636.45 1094.91,637.54 1096.19,638.64"/>
    </edge>
    <edge id=":124_5" function="internal">
        <lane id=":124_5_0" index="0" speed="13.90" length="12.27" shape="1096.29,634.34 1085.75,640.62"/>
    </edge>
    <edge id=":124_6" function="internal">
        <lane id=":124_6_0" index="0" speed="13.90" length="6.74" shape="1096.29,634.34 1092.94,635.82 1089.88,636.17"/>
    </edge>
    <edge id=":124_7" function="internal">
        <lane id=":124_7_0" index="0" speed="13.90" length="2.41" shape="1096.29,634.34 1094.80,634.26 1094.03,633.75"/>
    </edge>
    <edge id=":124_16" function="internal">
        <lane id=":124_16_0" index="0" speed="13.90" length="6.02" shape="1089.88,636.17 1087.10,635.38 1084.61,633.47"/>
    </edge>
    <edge id=":124_17" function="internal">
        <lane id=":124_17_0" index="0" speed="13.90" length="2.41" shape="1094.03,633.75 1093.97,632.83 1094.62,631.50"/>
    </edge>
    <edge id=":124_8" function="internal">
        <lane id=":124_8_0" index="0" speed="13.90" length="8.29" shape="1087.01,631.20 1088.57,632.37 1090.36,632.80 1092.37,632.51 1094.62,631.50"/>
    </edge>
    <edge id=":124_9" function="internal">
        <lane id=":124_9_0" index="0" speed="13.90" length="11.86" shape="1087.01,631.20 1089.30,633.51 1091.31,635.27 1093.47,636.84 1096.19,638.64"/>
    </edge>
    <edge id=":124_10" function="internal">
        <lane id=":124_10_0" index="0" speed="13.90" length="11.46" shape="1087.01,631.20 1088.88,633.85 1089.29,636.30 1088.25,638.56 1085.75,640.62"/>
    </edge>
    <edge id=":124_11" function="internal">
        <lane id=":124_11_0" index="0" speed="13.90" length="4.82" shape="1087.01,631.20 1087.26,632.67 1086.94,633.53 1086.06,633.80 1084.61,633.47"/>
    </edge>
    <edge id=":124_12" function="internal">
        <lane id=":124_12_0" index="0" speed="13.90" length="5.27" shape="1084.03,637.80 1085.18,636.85 1085.66,635.82 1085.47,634.69 1084.61,633.47"/>
    </edge>
    <edge id=":124_13" function="internal">
        <lane id=":124_13_0" index="0" speed="13.90" length="12.33" shape="1084.03,637.80 1094.62,631.50"/>
    </edge>
    <edge id=":124_14" function="internal">
        <lane id=":124_14_0" index="0" speed="13.90" length="6.10" shape="1084.03,637.80 1086.89,636.58 1089.87,636.31"/>
    </edge>
    <edge id=":124_15" function="internal">
        <lane id=":124_15_0" index="0" speed="13.90" length="2.41" shape="1084.03,637.80 1085.52,637.86 1086.30,638.35"/>
    </edge>
    <edge id=":124_18" function="internal">
        <lane id=":124_18_0" index="0" speed="13.90" length="6.79" shape="1089.87,636.31 1092.97,637.00 1096.19,638.64"/>
    </edge>
    <edge id=":124_19" function="internal">
        <lane id=":124_19_0" index="0" speed="13.90" length="2.41" shape="1086.30,638.35 1086.37,639.27 1085.75,640.62"/>
    </edge>
    <edge id=":127_0" function="internal">
        <lane id=":127_0_0" index="0" speed="13.90" length="10.03" shape="913.03,871.96 911.14,862.11"/>
    </edge>
    <edge id=":127_1" function="internal">
        <lane id=":127_1_0" index="0" speed="13.90" length="5.24" shape="913.03,871.96 912.84,869.33 913.63,867.09 913.79,866.93"/>
    </edge>
    <edge id=":127_2" function="internal">
        <lane id=":127_2_0" index="0" speed="13.90" length="2.55" shape="913.03,871.96 913.54,870.56 914.24,869.96 914.38,870.00"/>
    </edge>
    <edge id=":127_9" function="internal">
        <lane id=":127_9_0" index="0" speed="13.90" length="5.45" shape="913.79,866.93 915.41,865.26 918.18,863.81"/>
    </edge>
    <edge id=":127_10" function="internal">
        <lane id=":127_10_0" index="0" speed="13.90" length="2.27" shape="914.38,870.00 915.14,870.17 916.24,871.18"/>
    </edge>
    <edge id=":127_3" function="internal">
        <lane id=":127_3_0" index="0" speed="13.90" length="5.85" shape="919.35,866.90 917.73,867.71 916.67,868.69 916.17,869.85 916.24,871.18"/>
    </edge>
    <edge id=":127_4" function="internal">
        <lane id=":127_4_0" index="0" speed="13.90" length="11.47" shape="919.35,866.90 916.19,867.61 913.76,867.05 912.08,865.21 911.14,862.11"/>
    </edge>
    <edge id=":127_5" function="internal">
        <lane id=":127_5_0" index="0" speed="13.90" length="4.82" shape="919.35,866.90 917.90,866.57 917.22,865.94 917.32,865.02 918.18,863.81"/>
    </edge>
    <edge id=":127_6" function="internal">
        <lane id=":127_6_0" index="0" speed="13.90" length="5.28" shape="914.40,861.61 914.83,863.04 915.61,863.88 916.72,864.14 918.18,863.81"/>
    </edge>
    <edge id=":127_7" function="internal">
        <lane id=":127_7_0" index="0" speed="13.90" length="9.74" shape="914.40,861.61 916.24,871.18"/>
    </edge>
    <edge id=":127_8" function="internal">
        <lane id=":127_8_0" index="0" speed="13.90" length="2.41" shape="914.40,861.61 913.77,862.96 913.02,863.49"/>
    </edge>
    <edge id=":127_11" function="internal">
        <lane id=":127_11_0" index="0" speed="13.90" length="2.41" shape="913.02,863.49 912.14,863.21 911.14,862.11"/>
    </edge>
    <edge id=":137_0" function="internal">
        <lane id=":137_0_0" index="0" speed="13.90" length="12.21" shape="720.62,878.14 717.82,879.89 715.30,881.05 712.65,881.97 709.48,882.98"/>
    </edge>
    <edge id=":137_1" function="internal">
        <lane id=":137_1_0" index="0" speed="13.90" length="4.89" shape="720.62,878.14 718.38,879.05 715.91,878.94"/>
    </edge>
    <edge id=":137_2" function="internal">
        <lane id=":137_2_0" index="0" speed="13.90" length="2.55" shape="720.62,878.14 719.13,878.17 718.33,877.73 718.31,877.60"/>
    </edge>
    <edge id=":137_9" function="internal">
        <lane id=":137_9_0" index="0" speed="13.90" length="7.60" shape="715.91,878.94 715.72,878.94 712.62,877.81 709.10,875.68"/>
    </edge>
    <edge id=":137_10" function="internal">
        <lane id=":137_10_0" index="0" speed="13.90" length="2.27" shape="718.31,877.60 718.19,876.82 718.74,875.44"/>
    </edge>
    <edge id=":137_3" function="internal">
        <lane id=":137_3_0" index="0" speed="13.90" length="8.50" shape="711.00,872.99 713.58,874.62 715.73,875.57 717.45,875.84 718.74,875.44"/>
    </edge>
    <edge id=":137_4" function="internal">
        <lane id=":137_4_0" index="0" speed="13.90" length="14.75" shape="711.00,872.99 714.36,876.05 715.23,878.74 713.60,881.05 709.48,882.98"/>
    </edge>
    <edge id=":137_5" function="internal">
        <lane id=":137_5_0" index="0" speed="13.90" length="4.82" shape="711.00,872.99 711.54,874.37 711.40,875.29 710.58,875.72 709.10,875.68"/>
    </edge>
    <edge id=":137_6" function="internal">
        <lane id=":137_6_0" index="0" speed="13.90" length="6.14" shape="708.46,879.84 710.18,879.04 710.86,878.08 710.50,876.96 709.10,875.68"/>
    </edge>
    <edge id=":137_7" function="internal">
        <lane id=":137_7_0" index="0" speed="13.90" length="11.24" shape="708.46,879.84 711.50,878.90 713.85,878.13 716.07,877.11 718.74,875.44"/>
    </edge>
    <edge id=":137_8" function="internal">
        <lane id=":137_8_0" index="0" speed="13.90" length="2.41" shape="708.46,879.84 709.90,880.24 710.54,880.90"/>
    </edge>
    <edge id=":137_11" function="internal">
        <lane id=":137_11_0" index="0" speed="13.90" length="2.41" shape="710.54,880.90 710.40,881.81 709.48,882.98"/>
    </edge>
    <edge id=":14_0" function="internal">
        <lane id=":14_0_0" index="0" speed="13.90" length="7.07" shape="455.39,209.63 454.24,207.50 453.02,206.12 451.73,205.49 450.36,205.61"/>
    </edge>
    <edge id=":14_1" function="internal">
        <lane id=":14_1_0" index="0" speed="13.90" length="13.45" shape="455.39,209.63 454.26,205.77 454.85,203.13 457.15,201.71 461.17,201.52"/>
    </edge>
    <edge id=":14_2" function="internal">
        <lane id=":14_2_0" index="0" speed="13.90" length="4.82" shape="455.39,209.63 455.64,208.16 456.23,207.45 457.15,207.49 458.40,208.29"/>
    </edge>