<?xml version="1.0" encoding="UTF-8"?>

<!-- generated on Tue May 23 19:23:02 2017 by SUMO netgenerate Version 0.28.0
<?xml version="1.0" encoding="UTF-8"?>

<configuration xmlns:xsi="http://www.w3.org/2001/XMLSchema-instance" xsi:noNamespaceSchemaLocation="http://sumo.dlr.de/xsd/netgenerateConfiguration.xsd">

    <random_network>
        <rand value="true"/>
        <rand.iterations value="60"/>
        <rand.connectivity value="1"/>
    </random_network>

    <output>
        <output-file value="HighConnectivity.net.xml"/>
    </output>

    <processing>
        <no-internal-links value="true"/>
        <no-turnarounds value="true"/>
    </processing>

</configuration>
-->

<net version="0.27" xmlns:xsi="http://www.w3.org/2001/XMLSchema-instance" xsi:noNamespaceSchemaLocation="http://sumo.dlr.de/xsd/net_file.xsd">

    <location netOffset="568.70,565.34" convBoundary="0.00,0.00,1635.44,1586.82" origBoundary="-568.70,-565.34,1066.74,1021.48" projParameter="!"/>

    <edge id="-11" from="10" to="1" priority="-1">
        <lane id="-11_0" index="0" speed="13.90" length="169.92" shape="410.09,612.83 562.63,565.49"/>
    </edge>
    <edge id="-116" from="115" to="12" priority="-1">
        <lane id="-116_0" index="0" speed="13.90" length="169.43" shape="735.42,255.67 650.19,383.36"/>
    </edge>
    <edge id="-117" from="37" to="14" priority="-1">
        <lane id="-117_0" index="0" speed="13.90" length="122.36" shape="569.56,214.06 460.89,204.80"/>
    </edge>
    <edge id="-119" from="118" to="14" priority="-1">
        <lane id="-119_0" index="0" speed="13.90" length="123.00" shape="341.31,240.19 449.27,202.49"/>
    </edge>
    <edge id="-121" from="63" to="18" priority="-1">
        <lane id="-121_0" index="0" speed="13.90" length="211.36" shape="800.38,367.88 956.79,494.78"/>
    </edge>
    <edge id="-123" from="122" to="18" priority="-1">
        <lane id="-123_0" index="0" speed="13.90" length="154.98" shape="1010.93,358.15 964.74,495.15"/>
    </edge>
    <edge id="-125" from="124" to="18" priority="-1">
        <lane id="-125_0" index="0" speed="13.90" length="186.93" shape="1084.61,633.47 962.56,504.31"/>
    </edge>
    <edge id="-126" from="124" to="24" priority="-1">
        <lane id="-126_0" index="0" speed="13.90" length="226.23" shape="1085.75,640.62 903.35,751.65"/>
    </edge>
    <edge id="-128" from="127" to="24" priority="-1">
        <lane id="-128_0" index="0" speed="13.90" length="114.66" shape="911.14,862.11 895.93,762.13"/>
    </edge>
    <edge id="-13" from="12" to="2" priority="-1">
        <lane id="-13_0" index="0" speed="13.90" length="136.01" shape="635.03,388.01 520.75,342.55"/>
    </edge>
    <edge id="-138" from="137" to="24" priority="-1">
        <lane id="-138_0" index="0" speed="13.90" length="218.95" shape="718.74,875.44 889.90,756.45"/>
    </edge>
    <edge id="-15" from="14" to="2" priority="-1">
        <lane id="-15_0" index="0" speed="13.90" length="153.95" shape="458.40,208.29 516.78,340.01"/>
    </edge>
    <edge id="-17" from="12" to="8" priority="-1">
        <lane id="-17_0" index="0" speed="13.90" length="228.71" shape="649.39,394.36 776.70,565.73"/>
    </edge>
    <edge id="-19" from="18" to="8" priority="-1">
        <lane id="-19_0" index="0" speed="13.90" length="195.02" shape="955.31,504.63 785.97,572.87"/>
    </edge>
    <edge id="-210" from="209" to="24" priority="-1">
        <lane id="-210_0" index="0" speed="13.90" length="148.23" shape="1018.59,821.46 902.63,759.21"/>
    </edge>
    <edge id="-25" from="24" to="8" priority="-1">
        <lane id="-25_0" index="0" speed="13.90" length="214.68" shape="892.45,750.93 781.86,578.82"/>
    </edge>
    <edge id="-3" from="2" to="1" priority="-1">
        <lane id="-3_0" index="0" speed="13.90" length="229.48" shape="517.56,345.31 569.24,560.53"/>
    </edge>
    <edge id="-313" from="115" to="37" priority="-1">
        <lane id="-313_0" index="0" speed="13.90" length="165.95" shape="731.54,249.11 584.71,216.57"/>
    </edge>
    <edge id="-319" from="318" to="37" priority="-1">
        <lane id="-319_0" index="0" speed="13.90" length="222.58" shape="512.79,-0.48 575.72,206.44"/>
    </edge>
    <edge id="-325" from="324" to="37" priority="-1">
        <lane id="-325_0" index="0" speed="13.90" length="156.54" shape="708.58,129.74 584.70,209.30"/>
    </edge>
    <edge id="-326" from="115" to="63" priority="-1">
        <lane id="-326_0" index="0" speed="13.90" length="132.38" shape="742.64,254.47 795.87,361.22"/>
    </edge>
    <edge id="-330" from="329" to="118" priority="-1">
        <lane id="-330_0" index="0" speed="13.90" length="224.05" shape="224.57,49.87 335.41,235.66"/>
    </edge>
    <edge id="-332" from="331" to="118" priority="-1">
        <lane id="-332_0" index="0" speed="13.90" length="123.93" shape="217.03,233.37 330.37,240.96"/>
    </edge>
    <edge id="-333" from="137" to="6" priority="-1">
        <lane id="-333_0" index="0" speed="13.90" length="177.00" shape="709.10,875.68 575.95,781.60"/>
    </edge>
    <edge id="-336" from="335" to="122" priority="-1">
        <lane id="-336_0" index="0" speed="13.90" length="104.87" shape="1114.21,370.57 1014.64,355.87"/>
    </edge>
    <edge id="-338" from="337" to="122" priority="-1">
        <lane id="-338_0" index="0" speed="13.90" length="119.90" shape="987.06,236.06 1011.53,349.61"/>
    </edge>
    <edge id="-348" from="347" to="137" priority="-1">
        <lane id="-348_0" index="0" speed="13.90" length="205.58" shape="527.84,938.26 708.46,879.84"/>
    </edge>
    <edge id="-355" from="347" to="6" priority="-1">
        <lane id="-355_0" index="0" speed="13.90" length="173.12" shape="521.68,934.33 567.96,784.37"/>
    </edge>
    <edge id="-360" from="209" to="127" priority="-1">
        <lane id="-360_0" index="0" speed="13.90" length="121.33" shape="1019.50,828.69 919.35,866.90"/>
    </edge>
    <edge id="-362" from="361" to="127" priority="-1">
        <lane id="-362_0" index="0" speed="13.90" length="204.83" shape="959.32,1061.70 913.03,871.96"/>
    </edge>
    <edge id="-364" from="363" to="347" priority="-1">
        <lane id="-364_0" index="0" speed="13.90" length="247.33" shape="539.16,1182.02 519.67,946.42"/>
    </edge>
    <edge id="-368" from="367" to="347" priority="-1">
        <lane id="-368_0" index="0" speed="13.90" length="182.80" shape="363.02,869.76 516.93,938.60"/>
    </edge>
    <edge id="-375" from="367" to="6" priority="-1">
        <lane id="-375_0" index="0" speed="13.90" length="236.07" shape="361.80,862.59 563.60,778.52"/>
    </edge>
    <edge id="-38" from="37" to="12" priority="-1">
        <lane id="-38_0" index="0" speed="13.90" length="189.43" shape="580.23,219.40 642.27,380.85"/>
    </edge>
    <edge id="-380" from="379" to="361" priority="-1">
        <lane id="-380_0" index="0" speed="13.90" length="210.38" shape="889.16,1258.71 958.22,1072.15"/>
    </edge>
    <edge id="-386" from="385" to="361" priority="-1">
        <lane id="-386_0" index="0" speed="13.90" length="147.04" shape="815.99,1082.55 955.16,1065.51"/>
    </edge>
    <edge id="-388" from="387" to="361" priority="-1">
        <lane id="-388_0" index="0" speed="13.90" length="153.86" shape="1102.18,1117.77 966.03,1069.44"/>
    </edge>
    <edge id="-390" from="389" to="363" priority="-1">
        <lane id="-390_0" index="0" speed="13.90" length="244.30" shape="321.43,1094.80 535.68,1184.54"/>
    </edge>
    <edge id="-396" from="395" to="363" priority="-1">
        <lane id="-396_0" index="0" speed="13.90" length="214.05" shape="474.50,1389.43 537.81,1194.32"/>
    </edge>
    <edge id="-400" from="399" to="363" priority="-1">
        <lane id="-400_0" index="0" speed="13.90" length="136.78" shape="642.15,1279.21 545.12,1194.19"/>
    </edge>
    <edge id="-401" from="389" to="367" priority="-1">
        <lane id="-401_0" index="0" speed="13.90" length="229.92" shape="315.08,1090.03 351.53,872.93"/>
    </edge>
    <edge id="-403" from="402" to="367" priority="-1">
        <lane id="-403_0" index="0" speed="13.90" length="248.58" shape="281.35,635.58 354.14,862.28"/>
    </edge>
    <edge id="-405" from="402" to="10" priority="-1">
        <lane id="-405_0" index="0" speed="13.90" length="129.20" shape="285.65,628.34 400.32,614.76"/>
    </edge>
    <edge id="-423" from="422" to="10" priority="-1">
        <lane id="-423_0" index="0" speed="13.90" length="130.75" shape="356.79,501.98 405.46,609.61"/>
    </edge>
    <edge id="-503" from="502" to="10" priority="-1">
        <lane id="-503_0" index="0" speed="13.90" length="110.18" shape="412.16,725.75 405.09,620.72"/>
    </edge>
    <edge id="-516" from="515" to="387" priority="-1">
        <lane id="-516_0" index="0" speed="13.90" length="136.81" shape="1207.38,1207.93 1110.87,1123.25"/>
    </edge>
    <edge id="-518" from="517" to="387" priority="-1">
        <lane id="-518_0" index="0" speed="13.90" length="241.80" shape="1287.86,965.87 1112.21,1115.63"/>
    </edge>
    <edge id="-534" from="533" to="387" priority="-1">
        <lane id="-534_0" index="0" speed="13.90" length="218.36" shape="1037.86,1322.23 1103.56,1123.35"/>
    </edge>
    <edge id="-536" from="535" to="389" priority="-1">
        <lane id="-536_0" index="0" speed="13.90" length="218.86" shape="256.49,1296.90 313.03,1098.84"/>
    </edge>
    <edge id="-538" from="379" to="399" priority="-1">
        <lane id="-538_0" index="0" speed="13.90" length="245.33" shape="885.60,1265.48 645.69,1280.41"/>
    </edge>
    <edge id="-540" from="422" to="402" priority="-1">
        <lane id="-540_0" index="0" speed="13.90" length="147.77" shape="349.15,503.97 283.29,624.85"/>
    </edge>
    <edge id="-544" from="543" to="422" priority="-1">
        <lane id="-544_0" index="0" speed="13.90" length="150.58" shape="209.43,529.45 342.92,495.92"/>
    </edge>
    <edge id="-565" from="564" to="517" priority="-1">
        <lane id="-565_0" index="0" speed="13.90" length="212.00" shape="1429.64,1112.05 1296.28,968.83"/>
    </edge>
    <edge id="-569" from="568" to="517" priority="-1">
        <lane id="-569_0" index="0" speed="13.90" length="144.84" shape="1176.50,879.36 1287.38,956.28"/>
    </edge>
    <edge id="-581" from="580" to="517" priority="-1">
        <lane id="-581_0" index="0" speed="13.90" length="193.56" shape="1478.71,968.57 1300.39,962.85"/>
    </edge>
    <edge id="-582" from="379" to="533" priority="-1">
        <lane id="-582_0" index="0" speed="13.90" length="160.76" shape="894.00,1263.87 1035.72,1323.20"/>
    </edge>
    <edge id="-584" from="395" to="535" priority="-1">
        <lane id="-584_0" index="0" speed="13.90" length="235.23" shape="471.14,1393.48 259.44,1307.97"/>
    </edge>
    <edge id="-588" from="587" to="535" priority="-1">
        <lane id="-588_0" index="0" speed="13.90" length="195.37" shape="133.83,1152.28 252.36,1297.75"/>
    </edge>
    <edge id="-594" from="593" to="535" priority="-1">
        <lane id="-594_0" index="0" speed="13.90" length="163.60" shape="110.84,1380.35 250.38,1305.89"/>
    </edge>
    <edge id="-597" from="543" to="402" priority="-1">
        <lane id="-597_0" index="0" speed="13.90" length="123.33" shape="208.80,536.73 275.48,624.70"/>
    </edge>
    <edge id="-601" from="600" to="543" priority="-1">
        <lane id="-601_0" index="0" speed="13.90" length="220.74" shape="0.64,445.83 196.92,528.02"/>
    </edge>
    <edge id="-603" from="602" to="543" priority="-1">
        <lane id="-603_0" index="0" speed="13.90" length="141.62" shape="171.72,395.48 203.32,524.50"/>
    </edge>
    <edge id="-608" from="602" to="331" priority="-1">
        <lane id="-608_0" index="0" speed="13.90" length="166.24" shape="168.55,393.79 211.98,236.95"/>
    </edge>
    <edge id="-615" from="564" to="515" priority="-1">
        <lane id="-615_0" index="0" speed="13.90" length="243.67" shape="1430.49,1119.92 1212.46,1208.79"/>
    </edge>
    <edge id="-617" from="580" to="564" priority="-1">
        <lane id="-617_0" index="0" speed="13.90" length="156.80" shape="1484.35,973.17 1439.37,1109.92"/>
    </edge>
    <edge id="-619" from="618" to="564" priority="-1">
        <lane id="-619_0" index="0" speed="13.90" length="187.02" shape="1556.95,1249.01 1436.96,1119.92"/>
    </edge>
    <edge id="-620" from="209" to="568" priority="-1">
        <lane id="-620_0" index="0" speed="13.90" length="154.98" shape="1034.31,825.07 1166.48,874.47"/>
    </edge>
    <edge id="-624" from="623" to="568" priority="-1">
        <lane id="-624_0" index="0" speed="13.90" length="162.56" shape="1228.25,728.54 1175.32,874.41"/>
    </edge>
    <edge id="-628" from="627" to="568" priority="-1">
        <lane id="-628_0" index="0" speed="13.90" length="156.78" shape="1060.26,984.00 1166.20,881.78"/>
    </edge>
    <edge id="-630" from="629" to="580" priority="-1">
        <lane id="-630_0" index="0" speed="13.90" length="118.27" shape="1569.11,884.33 1487.83,966.20"/>
    </edge>
    <edge id="-64" from="63" to="12" priority="-1">
        <lane id="-64_0" index="0" speed="13.90" length="154.78" shape="791.39,369.81 652.89,390.13"/>
    </edge>
    <edge id="-647" from="623" to="124" priority="-1">
        <lane id="-647_0" index="0" speed="13.90" length="164.30" shape="1224.51,725.52 1094.40,641.41"/>
    </edge>
    <edge id="-653" from="652" to="618" priority="-1">
        <lane id="-653_0" index="0" speed="13.90" length="101.35" shape="1577.69,1353.32 1562.45,1260.19"/>
    </edge>
    <edge id="-661" from="660" to="618" priority="-1">
        <lane id="-661_0" index="0" speed="13.90" length="237.98" shape="1379.58,1394.24 1556.43,1256.04"/>
    </edge>
    <edge id="-665" from="664" to="618" priority="-1">
        <lane id="-665_0" index="0" speed="13.90" length="234.88" shape="1637.01,1030.13 1566.68,1246.86"/>
    </edge>
    <edge id="-667" from="209" to="627" priority="-1">
        <lane id="-667_0" index="0" speed="13.90" length="164.87" shape="1029.88,830.89 1057.57,983.13"/>
    </edge>
    <edge id="-7" from="6" to="1" priority="-1">
        <lane id="-7_0" index="0" speed="13.90" length="211.49" shape="570.31,773.12 567.14,571.20"/>
    </edge>
    <edge id="-790" from="789" to="124" priority="-1">
        <lane id="-790_0" index="0" speed="13.90" length="112.72" shape="1187.71,580.84 1096.29,634.34"/>
    </edge>
    <edge id="-802" from="801" to="660" priority="-1">
        <lane id="-802_0" index="0" speed="13.90" length="125.72" shape="1486.12,1459.21 1380.47,1404.07"/>
    </edge>
    <edge id="-804" from="803" to="660" priority="-1">
        <lane id="-804_0" index="0" speed="13.90" length="225.44" shape="1248.51,1585.90 1370.15,1404.50"/>
    </edge>
    <edge id="-812" from="811" to="660" priority="-1">
        <lane id="-812_0" index="0" speed="13.90" length="171.37" shape="1204.78,1383.87 1368.56,1397.35"/>
    </edge>
    <edge id="-9" from="8" to="1" priority="-1">
        <lane id="-9_0" index="0" speed="13.90" length="211.77" shape="771.98,574.70 573.56,567.17"/>
    </edge>
    <edge id="11" from="1" to="10" priority="-1">
        <lane id="11_0" index="0" speed="13.90" length="169.92" shape="563.61,568.64 411.07,615.98"/>
    </edge>
    <edge id="116" from="12" to="115" priority="-1">
        <lane id="116_0" index="0" speed="13.90" length="169.43" shape="647.45,381.53 732.68,253.84"/>
    </edge>
    <edge id="117" from="14" to="37" priority="-1">
        <lane id="117_0" index="0" speed="13.90" length="122.36" shape="461.17,201.52 569.84,210.77"/>
    </edge>
    <edge id="119" from="14" to="118" priority="-1">
        <lane id="119_0" index="0" speed="13.90" length="123.00" shape="450.36,205.61 342.40,243.31"/>
    </edge>
    <edge id="121" from="18" to="63" priority="-1">
        <lane id="121_0" index="0" speed="13.90" length="211.36" shape="954.72,497.34 798.30,370.44"/>
    </edge>
    <edge id="123" from="18" to="122" priority="-1">
        <lane id="123_0" index="0" speed="13.90" length="154.98" shape="961.61,494.10 1007.80,357.09"/>
    </edge>
    <edge id="125" from="18" to="124" priority="-1">
        <lane id="125_0" index="0" speed="13.90" length="186.93" shape="964.96,502.05 1087.01,631.20"/>
    </edge>
    <edge id="126" from="24" to="124" priority="-1">
        <lane id="126_0" index="0" speed="13.90" length="226.23" shape="901.63,748.83 1084.03,637.80"/>
    </edge>
    <edge id="128" from="24" to="127" priority="-1">
        <lane id="128_0" index="0" speed="13.90" length="114.66" shape="899.19,761.64 914.40,861.61"/>
    </edge>
    <edge id="13" from="2" to="12" priority="-1">
        <lane id="13_0" index="0" speed="13.90" length="136.01" shape="521.97,339.48 636.25,384.94"/>
    </edge>
    <edge id="138" from="24" to="137" priority="-1">
        <lane id="138_0" index="0" speed="13.90" length="218.95" shape="891.79,759.16 720.62,878.14"/>
    </edge>
    <edge id="15" from="2" to="14" priority="-1">
        <lane id="15_0" index="0" speed="13.90" length="153.95" shape="513.76,341.34 455.39,209.63"/>
    </edge>
    <edge id="17" from="8" to="12" priority="-1">
        <lane id="17_0" index="0" speed="13.90" length="228.71" shape="774.05,567.70 646.74,396.33"/>
    </edge>
    <edge id="19" from="8" to="18" priority="-1">
        <lane id="19_0" index="0" speed="13.90" length="195.02" shape="784.73,569.81 954.08,501.57"/>
    </edge>
    <edge id="210" from="24" to="209" priority="-1">
        <lane id="210_0" index="0" speed="13.90" length="148.23" shape="904.19,756.30 1020.15,818.56"/>
    </edge>
    <edge id="25" from="8" to="24" priority="-1">
        <lane id="25_0" index="0" speed="13.90" length="214.68" shape="784.64,577.04 895.22,749.15"/>
    </edge>
    <edge id="3" from="1" to="2" priority="-1">
        <lane id="3_0" index="0" speed="13.90" length="229.48" shape="566.03,561.30 514.35,346.08"/>
    </edge>
    <edge id="313" from="37" to="115" priority="-1">
        <lane id="313_0" index="0" speed="13.90" length="165.95" shape="585.42,213.35 732.25,245.89"/>
    </edge>
    <edge id="319" from="37" to="318" priority="-1">
        <lane id="319_0" index="0" speed="13.90" length="222.58" shape="572.57,207.40 509.63,0.48"/>
    </edge>
    <edge id="325" from="37" to="324" priority="-1">
        <lane id="325_0" index="0" speed="13.90" length="156.54" shape="582.92,206.53 706.80,126.96"/>
    </edge>
    <edge id="326" from="63" to="115" priority="-1">
        <lane id="326_0" index="0" speed="13.90" length="132.38" shape="792.92,362.69 739.69,255.94"/>
    </edge>
    <edge id="330" from="118" to="329" priority="-1">
        <lane id="330_0" index="0" speed="13.90" length="224.05" shape="332.58,237.35 221.73,51.56"/>
    </edge>
    <edge id="332" from="118" to="331" priority="-1">
        <lane id="332_0" index="0" speed="13.90" length="123.93" shape="330.15,244.25 216.81,236.66"/>
    </edge>
    <edge id="333" from="6" to="137" priority="-1">
        <lane id="333_0" index="0" speed="13.90" length="177.00" shape="577.86,778.90 711.00,872.99"/>
    </edge>
    <edge id="336" from="122" to="335" priority="-1">
        <lane id="336_0" index="0" speed="13.90" length="104.87" shape="1015.12,352.61 1114.70,367.31"/>
    </edge>
    <edge id="338" from="122" to="337" priority="-1">
        <lane id="338_0" index="0" speed="13.90" length="119.90" shape="1008.31,350.30 983.83,236.76"/>
    </edge>
    <edge id="348" from="137" to="347" priority="-1">
        <lane id="348_0" index="0" speed="13.90" length="205.58" shape="709.48,882.98 528.86,941.40"/>
    </edge>
    <edge id="355" from="6" to="347" priority="-1">
        <lane id="355_0" index="0" speed="13.90" length="173.12" shape="571.11,785.34 524.84,935.30"/>
    </edge>
    <edge id="360" from="127" to="209" priority="-1">
        <lane id="360_0" index="0" speed="13.90" length="121.33" shape="918.18,863.81 1018.33,825.61"/>
    </edge>
    <edge id="362" from="127" to="361" priority="-1">
        <lane id="362_0" index="0" speed="13.90" length="204.83" shape="916.24,871.18 962.53,1060.91"/>
    </edge>
    <edge id="364" from="347" to="363" priority="-1">
        <lane id="364_0" index="0" speed="13.90" length="247.33" shape="522.96,946.15 542.45,1181.75"/>
    </edge>
    <edge id="368" from="347" to="367" priority="-1">
        <lane id="368_0" index="0" speed="13.90" length="182.80" shape="515.58,941.62 361.67,872.77"/>
    </edge>
    <edge id="375" from="6" to="367" priority="-1">
        <lane id="375_0" index="0" speed="13.90" length="236.07" shape="564.87,781.57 363.07,865.63"/>
    </edge>
    <edge id="38" from="12" to="37" priority="-1">
        <lane id="38_0" index="0" speed="13.90" length="189.43" shape="639.19,382.03 577.15,220.59"/>
    </edge>
    <edge id="380" from="361" to="379" priority="-1">
        <lane id="380_0" index="0" speed="13.90" length="210.38" shape="961.32,1073.30 892.25,1259.85"/>
    </edge>
    <edge id="386" from="361" to="385" priority="-1">
        <lane id="386_0" index="0" speed="13.90" length="147.04" shape="955.56,1068.78 816.39,1085.82"/>
    </edge>
    <edge id="388" from="361" to="387" priority="-1">
        <lane id="388_0" index="0" speed="13.90" length="153.86" shape="967.13,1066.33 1103.28,1114.66"/>
    </edge>
    <edge id="390" from="363" to="389" priority="-1">
        <lane id="390_0" index="0" speed="13.90" length="244.30" shape="534.41,1187.59 320.15,1097.84"/>
    </edge>
    <edge id="396" from="363" to="395" priority="-1">
        <lane id="396_0" index="0" speed="13.90" length="214.05" shape="540.95,1195.34 477.64,1390.45"/>
    </edge>
    <edge id="400" from="363" to="399" priority="-1">
        <lane id="400_0" index="0" speed="13.90" length="136.78" shape="547.29,1191.71 644.33,1276.72"/>
    </edge>
    <edge id="401" from="367" to="389" priority="-1">
        <lane id="401_0" index="0" speed="13.90" length="229.92" shape="354.79,873.48 318.33,1090.58"/>
    </edge>
    <edge id="403" from="367" to="402" priority="-1">
        <lane id="403_0" index="0" speed="13.90" length="248.58" shape="351.00,863.29 278.21,636.59"/>
    </edge>
    <edge id="405" from="10" to="402" priority="-1">
        <lane id="405_0" index="0" speed="13.90" length="129.20" shape="400.71,618.04 286.04,631.62"/>
    </edge>
    <edge id="423" from="10" to="422" priority="-1">
        <lane id="423_0" index="0" speed="13.90" length="130.75" shape="402.46,610.97 353.78,503.34"/>
    </edge>
    <edge id="503" from="10" to="502" priority="-1">
        <lane id="503_0" index="0" speed="13.90" length="110.18" shape="408.39,620.50 415.45,725.52"/>
    </edge>
    <edge id="516" from="387" to="515" priority="-1">
        <lane id="516_0" index="0" speed="13.90" length="136.81" shape="1113.05,1120.77 1209.55,1205.45"/>
    </edge>
    <edge id="518" from="387" to="517" priority="-1">
        <lane id="518_0" index="0" speed="13.90" length="241.80" shape="1110.07,1113.11 1285.72,963.35"/>
    </edge>
    <edge id="534" from="387" to="533" priority="-1">
        <lane id="534_0" index="0" speed="13.90" length="218.36" shape="1106.70,1124.38 1040.99,1323.26"/>
    </edge>
    <edge id="536" from="389" to="535" priority="-1">
        <lane id="536_0" index="0" speed="13.90" length="218.86" shape="316.20,1099.74 259.67,1297.80"/>
    </edge>
    <edge id="538" from="399" to="379" priority="-1">
        <lane id="538_0" index="0" speed="13.90" length="245.33" shape="645.48,1277.12 885.39,1262.19"/>
    </edge>
    <edge id="540" from="402" to="422" priority="-1">
        <lane id="540_0" index="0" speed="13.90" length="147.77" shape="280.39,623.27 346.26,502.39"/>
    </edge>
    <edge id="544" from="422" to="543" priority="-1">
        <lane id="544_0" index="0" speed="13.90" length="150.58" shape="343.72,499.12 210.23,532.65"/>
    </edge>
    <edge id="565" from="517" to="564" priority="-1">
        <lane id="565_0" index="0" speed="13.90" length="212.00" shape="1298.69,966.59 1432.06,1109.81"/>
    </edge>
    <edge id="569" from="517" to="568" priority="-1">
        <lane id="569_0" index="0" speed="13.90" length="144.84" shape="1285.50,958.99 1174.62,882.08"/>
    </edge>
    <edge id="581" from="517" to="580" priority="-1">
        <lane id="581_0" index="0" speed="13.90" length="193.56" shape="1300.50,959.55 1478.82,965.27"/>
    </edge>
    <edge id="582" from="533" to="379" priority="-1">
        <lane id="582_0" index="0" speed="13.90" length="160.76" shape="1034.45,1326.25 892.72,1266.91"/>
    </edge>
    <edge id="584" from="535" to="395" priority="-1">
        <lane id="584_0" index="0" speed="13.90" length="235.23" shape="260.68,1304.91 472.38,1390.42"/>
    </edge>
    <edge id="588" from="535" to="587" priority="-1">
        <lane id="588_0" index="0" speed="13.90" length="195.37" shape="249.80,1299.83 131.27,1154.37"/>
    </edge>
    <edge id="594" from="535" to="593" priority="-1">
        <lane id="594_0" index="0" speed="13.90" length="163.60" shape="251.93,1308.80 112.39,1383.26"/>
    </edge>
    <edge id="597" from="402" to="543" priority="-1">
        <lane id="597_0" index="0" speed="13.90" length="123.33" shape="272.85,626.69 206.17,538.72"/>
    </edge>
    <edge id="601" from="543" to="600" priority="-1">
        <lane id="601_0" index="0" speed="13.90" length="220.74" shape="195.64,531.06 -0.64,448.87"/>
    </edge>
    <edge id="603" from="543" to="602" priority="-1">
        <lane id="603_0" index="0" speed="13.90" length="141.62" shape="200.12,525.28 168.52,396.27"/>
    </edge>
    <edge id="608" from="331" to="602" priority="-1">
        <lane id="608_0" index="0" speed="13.90" length="166.24" shape="215.16,237.83 171.73,394.68"/>
    </edge>
    <edge id="615" from="515" to="564" priority="-1">
        <lane id="615_0" index="0" speed="13.90" length="243.67" shape="1211.21,1205.73 1429.25,1116.87"/>
    </edge>
    <edge id="617" from="564" to="580" priority="-1">
        <lane id="617_0" index="0" speed="13.90" length="156.80" shape="1436.24,1108.89 1481.21,972.14"/>
    </edge>
    <edge id="619" from="564" to="618" priority="-1">
        <lane id="619_0" index="0" speed="13.90" length="187.02" shape="1439.38,1117.67 1559.37,1246.76"/>
    </edge>
    <edge id="620" from="568" to="209" priority="-1">
        <lane id="620_0" index="0" speed="13.90" length="154.98" shape="1165.32,877.56 1033.15,828.16"/>
    </edge>
    <edge id="624" from="568" to="623" priority="-1">
        <lane id="624_0" index="0" speed="13.90" length="162.56" shape="1172.21,873.29 1225.15,727.41"/>
    </edge>
    <edge id="628" from="568" to="627" priority="-1">
        <lane id="628_0" index="0" speed="13.90" length="156.78" shape="1168.49,884.15 1062.55,986.37"/>
    </edge>
    <edge id="630" from="580" to="629" priority="-1">
        <lane id="630_0" index="0" speed="13.90" length="118.27" shape="1485.49,963.87 1566.76,882.01"/>
    </edge>
    <edge id="64" from="12" to="63" priority="-1">
        <lane id="64_0" index="0" speed="13.90" length="154.78" shape="652.41,386.86 790.91,366.55"/>
    </edge>
    <edge id="647" from="124" to="623" priority="-1">
        <lane id="647_0" index="0" speed="13.90" length="164.30" shape="1096.19,638.64 1226.30,722.75"/>
    </edge>
    <edge id="653" from="618" to="652" priority="-1">
        <lane id="653_0" index="0" speed="13.90" length="101.35" shape="1565.70,1259.66 1580.95,1352.79"/>
    </edge>
    <edge id="661" from="618" to="660" priority="-1">
        <lane id="661_0" index="0" speed="13.90" length="237.98" shape="1558.46,1258.64 1381.61,1396.84"/>
    </edge>
    <edge id="665" from="618" to="664" priority="-1">
        <lane id="665_0" index="0" speed="13.90" length="234.88" shape="1563.55,1245.84 1633.87,1029.11"/>
    </edge>
    <edge id="667" from="627" to="209" priority="-1">
        <lane id="667_0" index="0" speed="13.90" length="164.87" shape="1054.32,983.72 1026.63,831.48"/>
    </edge>
    <edge id="7" from="1" to="6" priority="-1">
        <lane id="7_0" index="0" speed="13.90" length="211.49" shape="570.44,571.15 573.61,773.07"/>
    </edge>
    <edge id="790" from="124" to="789" priority="-1">
        <lane id="790_0" index="0" speed="13.90" length="112.72" shape="1094.62,631.50 1186.05,577.99"/>
    </edge>
    <edge id="802" from="660" to="801" priority="-1">
        <lane id="802_0" index="0" speed="13.90" length="125.72" shape="1382.00,1401.14 1487.65,1456.28"/>
    </edge>
    <edge id="804" from="660" to="803" priority="-1">
        <lane id="804_0" index="0" speed="13.90" length="225.44" shape="1372.89,1406.34 1251.25,1587.74"/>
    </edge>
    <edge id="812" from="660" to="811" priority="-1">
        <lane id="812_0" index="0" speed="13.90" length="171.37" shape="1368.29,1400.64 1204.50,1387.16"/>
    </edge>
    <edge id="9" from="1" to="8" priority="-1">
        <lane id="9_0" index="0" speed="13.90" length="211.77" shape="573.69,563.88 772.10,571.40"/>
    </edge>

    <junction id="1" type="priority" x="568.70" y="565.34" incLanes="-7_0 -9_0 -3_0 -11_0" intLanes="" shape="565.54,571.23 572.04,571.13 573.50,568.77 573.75,562.28 570.80,560.16 564.48,561.68 562.16,563.96 564.09,570.17">
        <request index="0" response="000000000000" foes="000100010000"/>
        <request index="1" response="000000000000" foes="111100110000"/>
        <request index="2" response="000011000000" foes="110011110000"/>
        <request index="3" response="000010000000" foes="100010000000"/>
        <request index="4" response="000110000111" foes="100110000111"/>
        <request index="5" response="011110000110" foes="011110000110"/>
        <request index="6" response="000000000000" foes="010000000100"/>
        <request index="7" response="000000000000" foes="110000111100"/>
        <request index="8" response="000000000011" foes="110000110011"/>
        <request index="9" response="000000000010" foes="000000100010"/>
        <request index="10" response="000111000110" foes="000111100110"/>
        <request index="11" response="000110011110" foes="000110011110"/>