<?xml version="1.0" encoding="UTF-8"?>

<!-- generated on Mon May 22 19:37:23 2017 by SUMO duarouter Version 0.28.0
<?xml version="1.0" encoding="UTF-8"?>

<configuration xmlns:xsi="http://www.w3.org/2001/XMLSchema-instance" xsi:noNamespaceSchemaLocation="http://sumo.dlr.de/xsd/duarouterConfiguration.xsd">

    <input>
        <net-file value="HighConnectivity.net.xml"/>
        <trip-files value="LongTrips.trips.xml"/>
    </input>

    <output>
        <output-file value="LongRoutes.rou.xml"/>
    </output>

    <processing>
        <routing-algorithm value="dijkstra"/>
    </processing>

</configuration>
-->

<routes xmlns:xsi="http://www.w3.org/2001/XMLSchema-instance" xsi:noNamespaceSchemaLocation="http://sumo.dlr.de/xsd/routes_file.xsd">
    <vehicle id="0" depart="0.00" color="1,0,0">
        <route edges="-608 -332 -119 -15 13 -17 25 210 -620 -569 565 619 665"/>
    </vehicle>
    <vehicle id="777" depart="0.01" >
        <route edges="-540 -405 -11 9 25 210 -210"/>
    </vehicle>
    <vehicle id="1" depart="0.04">
        <route edges="423 -423 -11 9 19 125"/>
    </vehicle>
    <vehicle id="2" depart="0.08">
        <route edges="-390 400 538 -380 380"/>
    </vehicle>
    <vehicle id="3" depart="0.12">
        <route edges="375 401 536"/>
    </vehicle>
    <vehicle id="4" depart="0.16">
        <route edges="64 -64 -13 -3 7 355 364"/>
    </vehicle>
    <vehicle id="5" depart="0.20">
        <route edges="117 -38 -17 25 128 360"/>
    </vehicle>
    <vehicle id="6" depart="0.24">
        <route edges="-11 7 375 401 -390"/>
    </vehicle>
    <vehicle id="7" depart="0.28">
        <route edges="-364 -348 -138 210 -620 620"/>
    </vehicle>
    <vehicle id="8" depart="0.32">
        <route edges="-388 -362 -128 -25 17 116 -313"/>
    </vehicle>
    <vehicle id="9" depart="0.36">
        <route edges="-534 518 569 624 -647"/>
    </vehicle>
    <vehicle id="10" depart="0.40">
        <route edges="138 -138 210 -620 -569 581 -617"/>
    </vehicle>
    <vehicle id="11" depart="0.44">
        <route edges="540 -423 -11 9 25 210 -620 -569 565 -565"/>
    </vehicle>
    <vehicle id="12" depart="0.48">
        <route edges="620 -210 138 -333"/>
    </vehicle>
    <vehicle id="13" depart="0.52">
        <route edges="116 -116 -13 -3 7 375 401 536 594"/>
    </vehicle>
    <vehicle id="14" depart="0.56">
        <route edges="-19 -9 11 423 -540"/>
    </vehicle>
    <vehicle id="15" depart="0.60">
        <route edges="-620 620 -210 -25 17 -13 13"/>
    </vehicle>
    <vehicle id="16" depart="0.64">
        <route edges="-594 -536 -401 403 597 603 -608 -332 330"/>
    </vehicle>
    <vehicle id="17" depart="0.68">
        <route edges="-540 -405 -11 3 13 64 -121"/>
    </vehicle>
    <vehicle id="18" depart="0.72">
        <route edges="348 -348 -138 210 -620 -569 581 -581"/>
    </vehicle>
    <vehicle id="19" depart="0.76">
        <route edges="-790 -126 138 348 368 -375"/>
    </vehicle>
    <vehicle id="20" depart="0.80">
        <route edges="-423 -11 9 19 125"/>
    </vehicle>
    <vehicle id="21" depart="0.84">
        <route edges="117 313 -326 -121 123 -123"/>
    </vehicle>
    <vehicle id="22" depart="0.88">
        <route edges="-615 -516 -388 -362 -128 -25 17 -13 15 117"/>
    </vehicle>
    <vehicle id="23" depart="0.92">
        <route edges="-594 -536 -401 -368 368"/>
    </vehicle>
    <vehicle id="24" depart="0.96">
        <route edges="-380 -362 -128 -25 17 -13 13"/>
    </vehicle>
    <vehicle id="25" depart="1.00">
        <route edges="-338 -123 121 326 -313 -117 119 -119"/>
    </vehicle>
    <vehicle id="26" depart="1.04">
        <route edges="-333 -7 11 423 544"/>
    </vehicle>
    <vehicle id="27" depart="1.08">
        <route edges="-536 -390 400 538 -380 388 518 581 -617"/>
    </vehicle>
    <vehicle id="28" depart="1.12">
        <route edges="-405 -11 9 25 210 -620 -569 565 619 661 804"/>
    </vehicle>
    <vehicle id="29" depart="1.16">
        <route edges="619 -619 -615 -516 -388 380 -538 -400 396 -584 584"/>
    </vehicle>
    <vehicle id="30" depart="1.20">
        <route edges="-210 138 348"/>
    </vehicle>
    <vehicle id="31" depart="1.24">
        <route edges="-396 -364 -348"/>
    </vehicle>
    <vehicle id="32" depart="1.28">
        <route edges="-653 -619 -565 569 620 -360"/>
    </vehicle>
    <vehicle id="33" depart="1.32">
        <route edges="-400 400 538 -380 388 516"/>
    </vehicle>
    <vehicle id="34" depart="1.36">
        <route edges="518 569 620 -210 -25 -9 11 405 597 603 -603"/>
    </vehicle>
    <vehicle id="35" depart="1.40">
        <route edges="597 -597 -405 -11 3 13 116"/>
    </vehicle>
    <vehicle id="36" depart="1.44">
        <route edges="-503 405 -403 401 536 594"/>
    </vehicle>
    <vehicle id="37" depart="1.48">
        <route edges="-405 -11 9 25 210 -620 -569 565 619 665"/>
    </vehicle>
    <vehicle id="38" depart="1.52">
        <route edges="-619 -565 569 624 -647 -125 -19"/>
    </vehicle>
    <vehicle id="39" depart="1.56">
        <route edges="368 -375 -7 3 15 117 -38"/>
    </vehicle>
    <vehicle id="40" depart="1.60">
        <route edges="332 -332 -119 -15 13 -17 25 210 -620 -569 565 619 653"/>
    </vehicle>
    <vehicle id="41" depart="1.64">
        <route edges="-116 -17 25 210 -620 -569 581 630"/>
    </vehicle>
    <vehicle id="42" depart="1.68">
        <route edges="-210 138 348 364 390"/>
    </vehicle>
    <vehicle id="43" depart="1.72">
        <route edges="617 -581 569 620 -210 138 348 368 403"/>
    </vehicle>
    <vehicle id="44" depart="1.76">
        <route edges="-653 -619 -565 569 620 -210 -25 17 -13 15 119 332 608"/>
    </vehicle>
    <vehicle id="45" depart="1.80">
        <route edges="403 -405 -11 9 25 128 362 388 -388"/>
    </vehicle>
    <vehicle id="46" depart="1.84">
        <route edges="-802 -661 -619 -565 -518"/>
    </vehicle>
    <vehicle id="47" depart="1.88">
        <route edges="-123 -19 -9 7 355 364 390"/>
    </vehicle>
    <vehicle id="48" depart="1.92">
        <route edges="620 -210 -25 -9 11 405 597 -597"/>
    </vehicle>
    <vehicle id="49" depart="1.96">
        <route edges="-401 -375 -7 3"/>
    </vehicle>
    <vehicle id="50" depart="2.00">
        <route edges="-624 620 -210 -25 -9 11 405 597 -597"/>
    </vehicle>
    <vehicle id="51" depart="2.04">
        <route edges="-210 138 348 364 396"/>
    </vehicle>
    <vehicle id="52" depart="2.08">
        <route edges="-210 210 -620 -569 565 619 661 -661"/>
    </vehicle>
    <vehicle id="53" depart="2.12">
        <route edges="-423 -11 9 25 210 -620 -569 581"/>
    </vehicle>
    <vehicle id="54" depart="2.16">
        <route edges="-538 -400 390 -401"/>
    </vehicle>
    <vehicle id="55" depart="2.20">
        <route edges="-17 25 210 -620 -569"/>
    </vehicle>
    <vehicle id="56" depart="2.24">
        <route edges="-364 368 403 -405"/>
    </vehicle>
    <vehicle id="57" depart="2.28">
        <route edges="396 -396 -364 -355 -7 9"/>
    </vehicle>
    <vehicle id="58" depart="2.32">
        <route edges="-534 516 615 619 661 -661"/>
    </vehicle>
    <vehicle id="59" depart="2.36">
        <route edges="-628 620 -210 -25 17 -13"/>
    </vehicle>
    <vehicle id="60" depart="2.40">
        <route edges="362 -362 -128 -25 -9 11 503"/>
    </vehicle>
    <vehicle id="61" depart="2.44">
        <route edges="544 -597 -403 -368 -348 -138"/>
    </vehicle>
    <vehicle id="62" depart="2.48">
        <route edges="-518 -388 -362 -128 -25 -9 3"/>
    </vehicle>
    <vehicle id="63" depart="2.52">
        <route edges="64 -121 125 647 -624 620"/>
    </vehicle>
    <vehicle id="64" depart="2.56">
        <route edges="-615 -516 -388 -362 -128 -25 17 -17"/>
    </vehicle>
    <vehicle id="65" depart="2.60">
        <route edges="-380 -362 -128 -25 -9 7"/>
    </vehicle>
    <vehicle id="66" depart="2.64">
        <route edges="-617 -615 -516 -388 380 -538 -400 390"/>
    </vehicle>
    <vehicle id="67" depart="2.68">
        <route edges="-538 -400 -364 -355 -7 3 13 64 326"/>
    </vehicle>
    <vehicle id="68" depart="2.72">
        <route edges="-11 9 25 128 362 380 -582 582"/>
    </vehicle>
    <vehicle id="69" depart="2.76">
        <route edges="-544 -423 -11 9 25 128 362 388 534"/>
    </vehicle>
    <vehicle id="70" depart="2.80">
        <route edges="-812 -661 -619 -615 -516 -388 380 -538 -400 396 -396"/>
    </vehicle>
    <vehicle id="71" depart="2.84">
        <route edges="-536 -401 -368 -348 -138 128 -128"/>
    </vehicle>
    <vehicle id="72" depart="2.88">
        <route edges="400 538 -380 388 516 615 619 661 804"/>
    </vehicle>
    <vehicle id="73" depart="2.92">
        <route edges="628 667 -210 138 348 364 -364"/>
    </vehicle>
    <vehicle id="74" depart="2.96">
        <route edges="368 -368 -348 -138 210 -620 -569 581"/>
    </vehicle>
    <vehicle id="75" depart="3.00">
        <route edges="-364 368 403 597 603 -608"/>
    </vehicle>
    <vehicle id="76" depart="3.04">
        <route edges="-15 13 -17 25 210 -620 -569 565 617"/>
    </vehicle>
    <vehicle id="77" depart="3.08">
        <route edges="-396 -364 -348 -138 210 -667"/>
    </vehicle>
    <vehicle id="78" depart="3.12">
        <route edges="-597 -405 -11 9 19 125 647 -647"/>
    </vehicle>
    <vehicle id="79" depart="3.16">
        <route edges="-336 -123 125 647 -624 628 -628"/>
    </vehicle>
    <vehicle id="80" depart="3.20">
        <route edges="-325 -117 -15 -3 7 375 401 536 588"/>
    </vehicle>
    <vehicle id="81" depart="3.24">
        <route edges="-330 -119 -15 13 64"/>
    </vehicle>
    <vehicle id="82" depart="3.28">
        <route edges="-210 138 348 368 401"/>
    </vehicle>
    <vehicle id="83" depart="3.32">
        <route edges="-536 -401 403 597 601"/>
    </vehicle>
    <vehicle id="84" depart="3.36">
        <route edges="333 -138 210 -620 -569 565 619 661 812"/>
    </vehicle>
    <vehicle id="85" depart="3.40">
        <route edges="-588 -536 -401 403 597 603 -608 608"/>
    </vehicle>
    <vehicle id="86" depart="3.44">
        <route edges="348 364 400 538 -582"/>
    </vehicle>
    <vehicle id="87" depart="3.48">
        <route edges="-64 -17 25 210 -620 -569 565 619 653"/>
    </vehicle>
    <vehicle id="88" depart="3.52">
        <route edges="313 -326 -121 125 647 -624"/>
    </vehicle>
    <vehicle id="89" depart="3.56">
        <route edges="-386 388 516 615 619 661"/>
    </vehicle>
    <vehicle id="90" depart="3.60">
        <route edges="3 13 -17 25 210 -667 -628"/>
    </vehicle>
    <vehicle id="91" depart="3.64">
        <route edges="628 667 -210 138 348"/>
    </vehicle>
    <vehicle id="92" depart="3.68">
        <route edges="-401 -368 -348 -138 210 -620 -569 565"/>
    </vehicle>
    <vehicle id="93" depart="3.72">
        <route edges="581 -581 -518 -388 380 -538 -400 -364"/>
    </vehicle>
    <vehicle id="94" depart="3.76">
        <route edges="565 619 661 802"/>
    </vehicle>
    <vehicle id="95" depart="3.80">
        <route edges="-326 -64 -17 25 128 362 388 516 -516"/>
    </vehicle>
    <vehicle id="96" depart="3.84">
        <route edges="-368 -355 -7 9"/>
    </vehicle>
    <vehicle id="97" depart="3.88">
        <route edges="-125 -19 -9 11 423"/>
    </vehicle>
    <vehicle id="98" depart="3.92">
        <route edges="-375 -7 9 19 123"/>
    </vehicle>
    <vehicle id="99" depart="3.96">
        <route edges="-364 -355 -7 3 15 -15"/>
    </vehicle>
    <vehicle id="100" depart="4.00">
        <route edges="-386 -362 -128 -25 -9 11 405 597 603 -603"/>
    </vehicle>
    <vehicle id="101" depart="4.04">
        <route edges="15 -15 13 -17 25 128 362 -362"/>
    </vehicle>
    <vehicle id="102" depart="4.08">
        <route edges="11 -11 9 25 210 -667 -628"/>
    </vehicle>
    <vehicle id="103" depart="4.12">
        <route edges="-617 -565 569 620 -210 -25 -9 9"/>
    </vehicle>
    <vehicle id="104" depart="4.16">
        <route edges="-375 -7 3 13 64 326"/>
    </vehicle>
    <vehicle id="105" depart="4.20">
        <route edges="-584 584 -396 400 538 -380 388 516"/>
    </vehicle>
    <vehicle id="106" depart="4.24">
        <route edges="540 -423 -11 3 13 64 -121"/>
    </vehicle>
    <vehicle id="107" depart="4.28">
        <route edges="-581 569 620 -210 -25 -9 11 405 597 603 -608"/>
    </vehicle>
    <vehicle id="108" depart="4.32">
        <route edges="-423 -11 9 25 210 -620 -569"/>
    </vehicle>
    <vehicle id="109" depart="4.36">
        <route edges="-615 -516 -388 -362 -128 138 348 368"/>
    </vehicle>
    <vehicle id="110" depart="4.40">
        <route edges="597 -597 -403 -368 364 396"/>
    </vehicle>
    <vehicle id="111" depart="4.44">
        <route edges="-360 -128 138 348 368 401 536 -536"/>
    </vehicle>
    <vehicle id="112" depart="4.48">
        <route edges="-617 -565 569 620 -210 -25 -9 9"/>
    </vehicle>
    <vehicle id="113" depart="4.52">
        <route edges="-401 -368 -348 -138 126 647 -624"/>
    </vehicle>
    <vehicle id="114" depart="4.56">
        <route edges="-326 -64 -17 25 128 362 388"/>
    </vehicle>
    <vehicle id="115" depart="4.60">
        <route edges="-594 584 -396 400 538 -380 388 518 581"/>
    </vehicle>
    <vehicle id="116" depart="4.64">
        <route edges="-608 -332 -119 -15 13 -17 25 128 362 380 -582 -534"/>
    </vehicle>
    <vehicle id="117" depart="4.68">
        <route edges="581 -581 -518 -388 380 -538"/>
    </vehicle>
    <vehicle id="118" depart="4.72">
        <route edges="-15 13 64 -121 125 -126"/>
    </vehicle>
    <vehicle id="119" depart="4.76">
        <route edges="-538 -400 -364 -355 -7 3 15 119 330"/>
    </vehicle>
    <vehicle id="120" depart="4.80">
        <route edges="-313 -117 -15 -3 7 355 364 400 -400"/>
    </vehicle>
    <vehicle id="121" depart="4.84">
        <route edges="534 582 -538 -400 -364 368 401"/>
    </vehicle>
    <vehicle id="122" depart="4.88">
        <route edges="-619 -565 569 624 -647 -125 121 -121"/>
    </vehicle>
    <vehicle id="123" depart="4.92">
        <route edges="597 -597 -405 -11 9 25 210 -620 -569 565 619"/>
    </vehicle>
    <vehicle id="124" depart="4.96">
        <route edges="581 -581 -518 -388 380 -538 -400 396 -584"/>
    </vehicle>
    <vehicle id="125" depart="5.00">
        <route edges="-360 -128 -25 -9 11 405"/>
    </vehicle>
    <vehicle id="126" depart="5.04">
        <route edges="117 -38 -17 25 210 -210"/>
    </vehicle>
    <vehicle id="127" depart="5.08">
        <route edges="-536 -401 403 597 603 -608 -332 330"/>
    </vehicle>
    <vehicle id="128" depart="5.12">
        <route edges="396 -396 -364 -348 -138 126 647 -647"/>
    </vehicle>
    <vehicle id="129" depart="5.16">
        <route edges="-330 -119 -15 13 -17 25 210 -620 -569 581 -581"/>
    </vehicle>
    <vehicle id="130" depart="5.20">
        <route edges="-330 -119 117 313 -326"/>
    </vehicle>
    <vehicle id="131" depart="5.24">
        <route edges="-348 -138 -25 19 123"/>
    </vehicle>
    <vehicle id="132" depart="5.28">
        <route edges="-128 210 -620 -569 565 619"/>
    </vehicle>
    <vehicle id="133" depart="5.32">
        <route edges="400 538 -380 -362 -128 210"/>
    </vehicle>
    <vehicle id="134" depart="5.36">
        <route edges="-126 138 348 368 401 536 588"/>
    </vehicle>
    <vehicle id="135" depart="5.40">
        <route edges="538 -380 -362 -128 -25 17 -13 15 -15"/>
    </vehicle>
    <vehicle id="136" depart="5.44">
        <route edges="332 608 -603 -597 -403 -368 364 396 -396"/>
    </vehicle>
    <vehicle id="137" depart="5.48">
        <route edges="-584 -536 -401 -368 -348 -138 126 647 -647"/>
    </vehicle>
    <vehicle id="138" depart="5.52">
        <route edges="-423 -11 7 355 364 396 -584"/>
    </vehicle>
    <vehicle id="139" depart="5.56">
        <route edges="536 -536 -401 403 540"/>
    </vehicle>
    <vehicle id="140" depart="5.60">
        <route edges="597 -597 -405 -11 9 19 -19"/>
    </vehicle>
    <vehicle id="141" depart="5.64">
        <route edges="-802 -661 -619 -565 569 620 -210 -25 -9 11 405 -403"/>
    </vehicle>
    <vehicle id="142" depart="5.68">
        <route edges="348 368 403 597 603 -608"/>
    </vehicle>
    <vehicle id="143" depart="5.72">
        <route edges="-403 -368 364 400"/>
    </vehicle>
    <vehicle id="144" depart="5.76">
        <route edges="400 538 -582 -534"/>
    </vehicle>
    <vehicle id="145" depart="5.80">
        <route edges="210 -210 -25 17 116 -313"/>
    </vehicle>
    <vehicle id="146" depart="5.84">
        <route edges="375 -368 -348 -138 128 362 380"/>
    </vehicle>
    <vehicle id="147" depart="5.88">
        <route edges="-617 -615 -516 -388 380 -538 -400 396 -584 588"/>
    </vehicle>
    <vehicle id="148" depart="5.92">
        <route edges="-804 -661 -619 -565 569 620 -210 -25 17 38 313"/>
    </vehicle>
    <vehicle id="149" depart="5.96">
        <route edges="-665 -619 -615 -516 -388 380 -538 -400"/>
    </vehicle>
    <vehicle id="150" depart="6.00">
        <route edges="-661 -619 -565 569 620 -210 -25 17 -13 15 119"/>
    </vehicle>
    <vehicle id="151" depart="6.04">
        <route edges="-326 -64 -17 25 128 -128"/>
    </vehicle>
    <vehicle id="152" depart="6.08">
        <route edges="400 -400 -364 -355 -7 3 13 64 326"/>
    </vehicle>
    <vehicle id="153" depart="6.12">
        <route edges="-665 -619 -615 -516 -388 380 -538 -400 390 -401"/>
    </vehicle>
    <vehicle id="154" depart="6.16">
        <route edges="-601 -597 -405 -11 9 25 210 -620 -569 569"/>
    </vehicle>
    <vehicle id="155" depart="6.20">
        <route edges="401 -390 400 538 -380 388 516 615 619 665"/>
    </vehicle>
    <vehicle id="156" depart="6.24">
        <route edges="617 -581 -518 -388 380 -538"/>
    </vehicle>
    <vehicle id="157" depart="6.28">
        <route edges="210 -620 -569 565 619 661"/>
    </vehicle>
    <vehicle id="158" depart="6.32">
        <route edges="-386 380 -538 -400 396 -584"/>
    </vehicle>
    <vehicle id="159" depart="6.36">
        <route edges="-332 -119 -15 13 -17 25 210 -360"/>
    </vehicle>
    <vehicle id="160" depart="6.40">
        <route edges="-364 -355 -7 9 19"/>
    </vehicle>
    <vehicle id="161" depart="6.44">
        <route edges="388 -388 -362 -128 -25 -9 11 423 544"/>
    </vehicle>
    <vehicle id="162" depart="6.48">
        <route edges="126 -125 -19 -9 11 405 597 603 -608"/>
    </vehicle>
    <vehicle id="163" depart="6.52">
        <route edges="569 620 -210 -25 17 -13 15 117"/>
    </vehicle>
    <vehicle id="164" depart="6.56">
        <route edges="380 -380 -362 -128 -25 19 123 -123"/>
    </vehicle>
    <vehicle id="165" depart="6.60">
        <route edges="-565 569 620 -210 -25 17 -13 -3"/>
    </vehicle>
    <vehicle id="166" depart="6.64">
        <route edges="364 -364 -348 -138 210 -620 624"/>
    </vehicle>
    <vehicle id="167" depart="6.68">
        <route edges="619 -619 -615 -516 -388 386"/>
    </vehicle>
    <vehicle id="168" depart="6.72">
        <route edges="-503 -11 9 25 128 362 388 534"/>
    </vehicle>
    <vehicle id="169" depart="6.76">
        <route edges="-584 -536 -401 -375 -7 9 19 125"/>
    </vehicle>
    <vehicle id="170" depart="6.80">
        <route edges="-13 13 -17 25 210 -667 667"/>
    </vehicle>
    <vehicle id="171" depart="6.84">
        <route edges="-15 13 64 -121"/>
    </vehicle>
    <vehicle id="172" depart="6.88">
        <route edges="405 -403 -368 -348 -138"/>
    </vehicle>
    <vehicle id="173" depart="6.92">
        <route edges="-601 603 -608 -332 -119 117 319"/>
    </vehicle>
    <vehicle id="174" depart="6.96">
        <route edges="-665 -619 -615 -516 534 -534"/>
    </vehicle>
    <vehicle id="175" depart="7.00">
        <route edges="-518 -388 -362 -128 -25 -9 11"/>
    </vehicle>
    <vehicle id="176" depart="7.04">
        <route edges="615 -565 569 620 -210 -25 17 -17"/>
    </vehicle>
    <vehicle id="177" depart="7.08">
        <route edges="608 -603 -597 -405 -11 9 25 210 -620 -569 -518"/>
    </vehicle>
    <vehicle id="178" depart="7.12">
        <route edges="-325 -38 -17 25 210 -620 -569 565 619 665"/>
    </vehicle>
    <vehicle id="179" depart="7.16">
        <route edges="25 210 -620 -569 565"/>
    </vehicle>
    <vehicle id="180" depart="7.20">
        <route edges="368 403 597 603 -608 -332 332"/>
    </vehicle>
    <vehicle id="181" depart="7.24">
        <route edges="210 -210 138 348 368 401 536 588"/>
    </vehicle>
    <vehicle id="182" depart="7.28">
        <route edges="-538 -400 -364 -355 -7 9 19 121"/>
    </vehicle>
    <vehicle id="183" depart="7.32">
        <route edges="628 -628 -569 565 619 661"/>
    </vehicle>
    <vehicle id="184" depart="7.36">
        <route edges="597 -597 -405 -11 9 19 123"/>
    </vehicle>
    <vehicle id="185" depart="7.40">
        <route edges="-620 -569 565 619"/>
    </vehicle>
    <vehicle id="186" depart="7.44">
        <route edges="7 333 -138 210 -620 -569 565 619"/>
    </vehicle>
    <vehicle id="187" depart="7.48">
        <route edges="-538 538 -380 388 516 615 619 -619"/>
    </vehicle>
    <vehicle id="188" depart="7.52">
        <route edges="-128 -25 17 38 319"/>
    </vehicle>
    <vehicle id="189" depart="7.56">
        <route edges="-608 -332 -119 -15 13 -17 25 128 360"/>
    </vehicle>
    <vehicle id="190" depart="7.60">
        <route edges="518 569 620 -210 138 348 368 -375"/>
    </vehicle>
    <vehicle id="191" depart="7.64">
        <route edges="-665 -619 -565 569 620 -210 -25 17 -13 15 -15"/>
    </vehicle>
    <vehicle id="192" depart="7.68">
        <route edges="582 -380 -362 -128 -25 17 -13 15"/>
    </vehicle>
    <vehicle id="193" depart="7.72">
        <route edges="-620 620 -210 -25 17 116"/>
    </vehicle>
    <vehicle id="194" depart="7.76">
        <route edges="117 -117 -15 -3 7 355 364 396 -396"/>
    </vehicle>
    <vehicle id="195" depart="7.80">
        <route edges="-390 -364 -355 -7 9"/>
    </vehicle>
    <vehicle id="196" depart="7.84">
        <route edges="-534 -388 -362 -128 -25 17 -13 15 119 332 -332"/>
    </vehicle>
    <vehicle id="197" depart="7.88">
        <route edges="390 -390 400 538 -380 388 518 565"/>
    </vehicle>
    <vehicle id="198" depart="7.92">
        <route edges="620 -210 -25 -9 11 -11"/>
    </vehicle>
    <vehicle id="199" depart="7.96">
        <route edges="-38 -13 -3 11 503"/>
    </vehicle>
    <vehicle id="200" depart="8.00">
        <route edges="-653 -619 -615 -516 -388 380 -538 -400 396 -584"/>
    </vehicle>
    <vehicle id="201" depart="8.04">
        <route edges="-581 569 620 -210 -25 17 -13 15 119 330"/>
    </vehicle>
    <vehicle id="202" depart="8.08">
        <route edges="569 624 -647 -125 121 -121"/>
    </vehicle>
    <vehicle id="203" depart="8.12">
        <route edges="544 -597 -403 -368 364 400"/>
    </vehicle>
    <vehicle id="204" depart="8.16">
        <route edges="-25 -9 7 355 368"/>
    </vehicle>
    <vehicle id="205" depart="8.20">
        <route edges="-615 -516 -388 -362 -128 -25 17 -13 15 119"/>
    </vehicle>
    <vehicle id="206" depart="8.24">
        <route edges="-336 -123 -19 25 138"/>
    </vehicle>
    <vehicle id="207" depart="8.28">
        <route edges="-400 -364 -355 -7 9 19 123 336"/>
    </vehicle>
    <vehicle id="208" depart="8.32">
        <route edges="38 -38 -17 25 210 -620 -569"/>
    </vehicle>
    <vehicle id="209" depart="8.36">
        <route edges="584 -396 400 538 -380 388 516 615 619 661"/>
    </vehicle>
    <vehicle id="210" depart="8.40">
        <route edges="-536 -401 -375 -7 3 15 119"/>
    </vehicle>
    <vehicle id="211" depart="8.44">
        <route edges="-630 -581 569 620 -210 138 -333 375"/>
    </vehicle>
    <vehicle id="212" depart="8.48">
        <route edges="597 -597 -405 -11 9 19 125 647 -647"/>
    </vehicle>
    <vehicle id="213" depart="8.52">
        <route edges="400 538 -380 -362 360 -667 667"/>
    </vehicle>
    <vehicle id="214" depart="8.56">
        <route edges="123 -123 125 647 -624 -569 565 619 -619"/>
    </vehicle>
    <vehicle id="215" depart="8.60">
        <route edges="128 360 -620 -569 565 -615"/>
    </vehicle>
    <vehicle id="216" depart="8.64">
        <route edges="-123 -19 -9 7 355 364 396 -396"/>
    </vehicle>
    <vehicle id="217" depart="8.68">
        <route edges="-116 -17 25 128 362 388 534"/>
    </vehicle>
    <vehicle id="218" depart="8.72">
        <route edges="-615 -516 -388 -362 -128 -25 17 -13 15 117"/>
    </vehicle>
    <vehicle id="219" depart="8.76">
        <route edges="423 -423 -11 9 25 210 -620 -569 565 619 -619"/>
    </vehicle>
    <vehicle id="220" depart="8.80">
        <route edges="-536 -390 400 538 -380 388 516 615 -615"/>
    </vehicle>
    <vehicle id="221" depart="8.84">
        <route edges="-390 -364 -355 -7 3 15 117 -117"/>
    </vehicle>
    <vehicle id="222" depart="8.88">
        <route edges="-620 620 -210 -25 17 -13 15 119 -119"/>
    </vehicle>
    <vehicle id="223" depart="8.92">
        <route edges="-565 -518 -388 380 -538 -400 396 -584"/>
    </vehicle>
    <vehicle id="224" depart="8.96">
        <route edges="-332 -119 -15 13 -17 25 128 362 -362"/>
    </vehicle>
    <vehicle id="225" depart="9.00">
        <route edges="-584 584 -396 400 538 -380 388 516 615 619 -619"/>
    </vehicle>
    <vehicle id="226" depart="9.04">
        <route edges="-210 -25 -9 11"/>
    </vehicle>
    <vehicle id="227" depart="9.08">
        <route edges="-588 584 -396 400 538 -380 388 516 615 619 661 802"/>
    </vehicle>
    <vehicle id="228" depart="9.12">
        <route edges="-802 -661 -619 -615 -516 -388 380 -538 -400 396 -584"/>
    </vehicle>
    <vehicle id="229" depart="9.16">
        <route edges="364 400 538 -380 388 516 -516"/>
    </vehicle>
    <vehicle id="230" depart="9.20">
        <route edges="-401 -375 -7 3 15 117"/>
    </vehicle>
    <vehicle id="231" depart="9.24">
        <route edges="117 -38 -17 25 210 -620 -569 581 630"/>
    </vehicle>
    <vehicle id="232" depart="9.28">
        <route edges="15 -15 13 -17 25 210"/>
    </vehicle>
    <vehicle id="233" depart="9.32">
        <route edges="-601 -597 -405 -11 9 25 128 362 388 534"/>
    </vehicle>
    <vehicle id="234" depart="9.36">
        <route edges="-615 -516 -388 -362 -128 138 348 368 401"/>
    </vehicle>
    <vehicle id="235" depart="9.40">
        <route edges="-653 -619 -565 569 620 -210 138 348 364"/>
    </vehicle>
    <vehicle id="236" depart="9.44">
        <route edges="-396 -364 -355 -7 11 -11"/>
    </vehicle>
    <vehicle id="237" depart="9.48">
        <route edges="138 -138 128 362 380 -582"/>
    </vehicle>
    <vehicle id="238" depart="9.52">
        <route edges="-661 -619 -565 569 624 -647 -125 123 -123"/>
    </vehicle>
    <vehicle id="239" depart="9.56">
        <route edges="-338 -123 -19 -9 7 355 364 396 -396"/>
    </vehicle>
    <vehicle id="240" depart="9.60">
        <route edges="117 -38 -17 25 128 362 386"/>
    </vehicle>
    <vehicle id="241" depart="9.64">
        <route edges="628 667 -210 138 -333 355"/>
    </vehicle>
    <vehicle id="242" depart="9.68">
        <route edges="116 -326 -121 125 790"/>
    </vehicle>
    <vehicle id="243" depart="9.72">
        <route edges="121 326 -313 -117 119 332"/>
    </vehicle>
    <vehicle id="244" depart="9.76">
        <route edges="17 -13 -3 11 405 597"/>
    </vehicle>
    <vehicle id="245" depart="9.80">
        <route edges="-332 -119 -15 -3 7 355 364 -364"/>
    </vehicle>
    <vehicle id="246" depart="9.84">
        <route edges="-804 -661 -619 -565 569 620 -210 -25 17 38 -117"/>
    </vehicle>
    <vehicle id="247" depart="9.88">
        <route edges="38 -38 -17 25 210 -620 -569 565 619"/>
    </vehicle>
    <vehicle id="248" depart="9.92">
        <route edges="-538 -400 -364 -355 -7 3 -3"/>
    </vehicle>
    <vehicle id="249" depart="9.96">
        <route edges="-396 -364 -348 -138 210 -360"/>
    </vehicle>
    <vehicle id="250" depart="10.00">
        <route edges="-804 -661 -619 -565 569 620 -210 -25 -9 11 405 597"/>
    </vehicle>
    <vehicle id="251" depart="10.04">
        <route edges="-348 348 368 403 597 603"/>
    </vehicle>
    <vehicle id="252" depart="10.08">
        <route edges="-128 -25 17 38 325"/>
    </vehicle>
    <vehicle id="253" depart="10.12">
        <route edges="-403 -368 -348 -138 210 -360"/>
    </vehicle>
    <vehicle id="254" depart="10.16">
        <route edges="617 -581 569 624 -647 -125 123 -123"/>
    </vehicle>
    <vehicle id="255" depart="10.20">
        <route edges="-117 -15 -3 7 333 -138"/>
    </vehicle>
    <vehicle id="256" depart="10.24">
        <route edges="-338 -123 125 647 -624 -569 -518"/>
    </vehicle>
    <vehicle id="257" depart="10.28">
        <route edges="388 -388 -362 -128 -25 17 -13 15 119 332"/>
    </vehicle>
    <vehicle id="258" depart="10.32">
        <route edges="-653 -619 -565 569 620 -210 -25 17 -13 15 119"/>
    </vehicle>
    <vehicle id="259" depart="10.36">
        <route edges="-7 9 19 123"/>
    </vehicle>
    <vehicle id="260" depart="10.40">
        <route edges="-400 -364 -355 -7 3 15 117 319"/>
    </vehicle>
    <vehicle id="261" depart="10.44">
        <route edges="-126 -25 -9"/>
    </vehicle>
    <vehicle id="262" depart="10.48">
        <route edges="-326 326 -313 -117 119 332 608 -608"/>
    </vehicle>
    <vehicle id="263" depart="10.52">
        <route edges="326 -116 -17 25 128 362 388"/>
    </vehicle>
    <vehicle id="264" depart="10.56">
        <route edges="348 -355 -7 9 19 123 336"/>
    </vehicle>
    <vehicle id="265" depart="10.60">
        <route edges="-117 -15 13 -17 25 128"/>
    </vehicle>
    <vehicle id="266" depart="10.64">
        <route edges="-597 -405 -11 9 25 210 -620 -569 565 619 653"/>
    </vehicle>
    <vehicle id="267" depart="10.68">
        <route edges="-603 -597 -405 -11 9 19 125 647 -647"/>
    </vehicle>
    <vehicle id="268" depart="10.72">
        <route edges="-804 -661 -619 -565 569 620 -210 -25 -9 11 405 597 -544"/>
    </vehicle>
    <vehicle id="269" depart="10.76">