<?xml version="1.0"?>
<!-- generated on 2017-05-22 19:24:33.458931 by $Id: randomTrips.py 21557 2016-09-28 10:43:52Z luecken $
  options: -n HighConnectivity.net.xml -e 16 <doubleminus>min-distance 500 -o LongTrips.trips.xml -p 0.04
-->
<trips>
    <trip id="0" depart="0.00" from="-540" to="-210" />
    <trip id="1" depart="0.04" from="423" to="125" />
    <trip id="2" depart="0.08" from="-390" to="380" />
    <trip id="3" depart="0.12" from="375" to="536" />
    <trip id="4" depart="0.16" from="64" to="364" />
    <trip id="5" depart="0.20" from="117" to="360" />
    <trip id="6" depart="0.24" from="-11" to="-390" />
    <trip id="7" depart="0.28" from="-364" to="620" />
    <trip id="8" depart="0.32" from="-388" to="-313" />
    <trip id="9" depart="0.36" from="-534" to="-647" />
    <trip id="10" depart="0.40" from="138" to="-617" />
    <trip id="11" depart="0.44" from="540" to="-565" />
    <trip id="12" depart="0.48" from="620" to="-333" />
    <trip id="13" depart="0.52" from="116" to="594" />
    <trip id="14" depart="0.56" from="-19" to="-540" />
    <trip id="15" depart="0.60" from="-620" to="13" />
    <trip id="16" depart="0.64" from="-594" to="330" />
    <trip id="17" depart="0.68" from="-540" to="-121" />
    <trip id="18" depart="0.72" from="348" to="-581" />
    <trip id="19" depart="0.76" from="-790" to="-375" />
    <trip id="20" depart="0.80" from="-423" to="125" />
    <trip id="21" depart="0.84" from="117" to="-123" />
    <trip id="22" depart="0.88" from="-615" to="117" />
    <trip id="23" depart="0.92" from="-594" to="368" />
    <trip id="24" depart="0.96" from="-380" to="13" />
    <trip id="25" depart="1.00" from="-338" to="-119" />
    <trip id="26" depart="1.04" from="-333" to="544" />
    <trip id="27" depart="1.08" from="-536" to="-617" />
    <trip id="28" depart="1.12" from="-405" to="804" />
    <trip id="29" depart="1.16" from="619" to="584" />
    <trip id="30" depart="1.20" from="-210" to="348" />
    <trip id="31" depart="1.24" from="-396" to="-348" />
    <trip id="32" depart="1.28" from="-653" to="-360" />
    <trip id="33" depart="1.32" from="-400" to="516" />
    <trip id="34" depart="1.36" from="518" to="-603" />
    <trip id="35" depart="1.40" from="597" to="116" />
    <trip id="36" depart="1.44" from="-503" to="594" />
    <trip id="37" depart="1.48" from="-405" to="665" />
    <trip id="38" depart="1.52" from="-619" to="-19" />
    <trip id="39" depart="1.56" from="368" to="-38" />
    <trip id="40" depart="1.60" from="332" to="653" />
    <trip id="41" depart="1.64" from="-116" to="630" />
    <trip id="42" depart="1.68" from="-210" to="390" />
    <trip id="43" depart="1.72" from="617" to="403" />
    <trip id="44" depart="1.76" from="-653" to="608" />
    <trip id="45" depart="1.80" from="403" to="-388" />
    <trip id="46" depart="1.84" from="-802" to="-518" />
    <trip id="47" depart="1.88" from="-123" to="390" />
    <trip id="48" depart="1.92" from="620" to="-597" />
    <trip id="49" depart="1.96" from="-401" to="3" />
    <trip id="50" depart="2.00" from="-624" to="-597" />
    <trip id="51" depart="2.04" from="-210" to="396" />
    <trip id="52" depart="2.08" from="-210" to="-661" />
    <trip id="53" depart="2.12" from="-423" to="581" />
    <trip id="54" depart="2.16" from="-538" to="-401" />
    <trip id="55" depart="2.20" from="-17" to="-569" />
    <trip id="56" depart="2.24" from="-364" to="-405" />
    <trip id="57" depart="2.28" from="396" to="9" />
    <trip id="58" depart="2.32" from="-534" to="-661" />
    <trip id="59" depart="2.36" from="-628" to="-13" />
    <trip id="60" depart="2.40" from="362" to="503" />
    <trip id="61" depart="2.44" from="544" to="-138" />
    <trip id="62" depart="2.48" from="-518" to="3" />
    <trip id="63" depart="2.52" from="64" to="620" />
    <trip id="64" depart="2.56" from="-615" to="-17" />
    <trip id="65" depart="2.60" from="-380" to="7" />
    <trip id="66" depart="2.64" from="-617" to="390" />
    <trip id="67" depart="2.68" from="-538" to="326" />
    <trip id="68" depart="2.72" from="-11" to="582" />
    <trip id="69" depart="2.76" from="-544" to="534" />
    <trip id="70" depart="2.80" from="-812" to="-396" />
    <trip id="71" depart="2.84" from="-536" to="-128" />
    <trip id="72" depart="2.88" from="400" to="804" />
    <trip id="73" depart="2.92" from="628" to="-364" />
    <trip id="74" depart="2.96" from="368" to="581" />
    <trip id="75" depart="3.00" from="-364" to="-608" />
    <trip id="76" depart="3.04" from="-15" to="617" />
    <trip id="77" depart="3.08" from="-396" to="-667" />
    <trip id="78" depart="3.12" from="-597" to="-647" />
    <trip id="79" depart="3.16" from="-336" to="-628" />
    <trip id="80" depart="3.20" from="-325" to="588" />
    <trip id="81" depart="3.24" from="-330" to="64" />
    <trip id="82" depart="3.28" from="-210" to="401" />
    <trip id="83" depart="3.32" from="-536" to="601" />
    <trip id="84" depart="3.36" from="333" to="812" />
    <trip id="85" depart="3.40" from="-588" to="608" />
    <trip id="86" depart="3.44" from="348" to="-582" />
    <trip id="87" depart="3.48" from="-64" to="653" />
    <trip id="88" depart="3.52" from="313" to="-624" />
    <trip id="89" depart="3.56" from="-386" to="661" />
    <trip id="90" depart="3.60" from="3" to="-628" />
    <trip id="91" depart="3.64" from="628" to="348" />
    <trip id="92" depart="3.68" from="-401" to="565" />
    <trip id="93" depart="3.72" from="581" to="-364" />
    <trip id="94" depart="3.76" from="565" to="802" />
    <trip id="95" depart="3.80" from="-326" to="-516" />
    <trip id="96" depart="3.84" from="-368" to="9" />
    <trip id="97" depart="3.88" from="-125" to="423" />
    <trip id="98" depart="3.92" from="-375" to="123" />
    <trip id="99" depart="3.96" from="-364" to="-15" />
    <trip id="100" depart="4.00" from="-386" to="-603" />
    <trip id="101" depart="4.04" from="15" to="-362" />
    <trip id="102" depart="4.08" from="11" to="-628" />
    <trip id="103" depart="4.12" from="-617" to="9" />
    <trip id="104" depart="4.16" from="-375" to="326" />
    <trip id="105" depart="4.20" from="-584" to="516" />
    <trip id="106" depart="4.24" from="540" to="-121" />
    <trip id="107" depart="4.28" from="-581" to="-608" />
    <trip id="108" depart="4.32" from="-423" to="-569" />
    <trip id="109" depart="4.36" from="-615" to="368" />
    <trip id="110" depart="4.40" from="597" to="396" />
    <trip id="111" depart="4.44" from="-360" to="-536" />
    <trip id="112" depart="4.48" from="-617" to="9" />
    <trip id="113" depart="4.52" from="-401" to="-624" />
    <trip id="114" depart="4.56" from="-326" to="388" />
    <trip id="115" depart="4.60" from="-594" to="581" />
    <trip id="116" depart="4.64" from="-608" to="-534" />
    <trip id="117" depart="4.68" from="581" to="-538" />
    <trip id="118" depart="4.72" from="-15" to="-126" />
    <trip id="119" depart="4.76" from="-538" to="330" />
    <trip id="120" depart="4.80" from="-313" to="-400" />
    <trip id="121" depart="4.84" from="534" to="401" />
    <trip id="122" depart="4.88" from="-619" to="-121" />
    <trip id="123" depart="4.92" from="597" to="619" />
    <trip id="124" depart="4.96" from="581" to="-584" />
    <trip id="125" depart="5.00" from="-360" to="405" />
    <trip id="126" depart="5.04" from="117" to="-210" />
    <trip id="127" depart="5.08" from="-536" to="330" />
    <trip id="128" depart="5.12" from="396" to="-647" />
    <trip id="129" depart="5.16" from="-330" to="-581" />
    <trip id="130" depart="5.20" from="-330" to="-326" />
    <trip id="131" depart="5.24" from="-348" to="123" />
    <trip id="132" depart="5.28" from="-128" to="619" />
    <trip id="133" depart="5.32" from="400" to="210" />
    <trip id="134" depart="5.36" from="-126" to="588" />
    <trip id="135" depart="5.40" from="538" to="-15" />
    <trip id="136" depart="5.44" from="332" to="-396" />
    <trip id="137" depart="5.48" from="-584" to="-647" />
    <trip id="138" depart="5.52" from="-423" to="-584" />
    <trip id="139" depart="5.56" from="536" to="540" />
    <trip id="140" depart="5.60" from="597" to="-19" />
    <trip id="141" depart="5.64" from="-802" to="-403" />
    <trip id="142" depart="5.68" from="348" to="-608" />
    <trip id="143" depart="5.72" from="-403" to="400" />
    <trip id="144" depart="5.76" from="400" to="-534" />
    <trip id="145" depart="5.80" from="210" to="-313" />
    <trip id="146" depart="5.84" from="375" to="380" />
    <trip id="147" depart="5.88" from="-617" to="588" />
    <trip id="148" depart="5.92" from="-804" to="313" />
    <trip id="149" depart="5.96" from="-665" to="-400" />
    <trip id="150" depart="6.00" from="-661" to="119" />
    <trip id="151" depart="6.04" from="-326" to="-128" />
    <trip id="152" depart="6.08" from="400" to="326" />
    <trip id="153" depart="6.12" from="-665" to="-401" />
    <trip id="154" depart="6.16" from="-601" to="569" />
    <trip id="155" depart="6.20" from="401" to="665" />
    <trip id="156" depart="6.24" from="617" to="-538" />
    <trip id="157" depart="6.28" from="210" to="661" />
    <trip id="158" depart="6.32" from="-386" to="-584" />
    <trip id="159" depart="6.36" from="-332" to="-360" />
    <trip id="160" depart="6.40" from="-364" to="19" />
    <trip id="161" depart="6.44" from="388" to="544" />
    <trip id="162" depart="6.48" from="126" to="-608" />
    <trip id="163" depart="6.52" from="569" to="117" />
    <trip id="164" depart="6.56" from="380" to="-123" />
    <trip id="165" depart="6.60" from="-565" to="-3" />
    <trip id="166" depart="6.64" from="364" to="624" />
    <trip id="167" depart="6.68" from="619" to="386" />
    <trip id="168" depart="6.72" from="-503" to="534" />
    <trip id="169" depart="6.76" from="-584" to="125" />
    <trip id="170" depart="6.80" from="-13" to="667" />
    <trip id="171" depart="6.84" from="-15" to="-121" />
    <trip id="172" depart="6.88" from="405" to="-138" />
    <trip id="173" depart="6.92" from="-601" to="319" />
    <trip id="174" depart="6.96" from="-665" to="-534" />
    <trip id="175" depart="7.00" from="-518" to="11" />
    <trip id="176" depart="7.04" from="615" to="-17" />
    <trip id="177" depart="7.08" from="608" to="-518" />
    <trip id="178" depart="7.12" from="-325" to="665" />
    <trip id="179" depart="7.16" from="25" to="565" />
    <trip id="180" depart="7.20" from="368" to="332" />
    <trip id="181" depart="7.24" from="210" to="588" />
    <trip id="182" depart="7.28" from="-538" to="121" />
    <trip id="183" depart="7.32" from="628" to="661" />
    <trip id="184" depart="7.36" from="597" to="123" />
    <trip id="185" depart="7.40" from="-620" to="619" />
    <trip id="186" depart="7.44" from="7" to="619" />
    <trip id="187" depart="7.48" from="-538" to="-619" />
    <trip id="188" depart="7.52" from="-128" to="319" />
    <trip id="189" depart="7.56" from="-608" to="360" />
    <trip id="190" depart="7.60" from="518" to="-375" />
    <trip id="191" depart="7.64" from="-665" to="-15" />
    <trip id="192" depart="7.68" from="582" to="15" />
    <trip id="193" depart="7.72" from="-620" to="116" />
    <trip id="194" depart="7.76" from="117" to="-396" />
    <trip id="195" depart="7.80" from="-390" to="9" />
    <trip id="196" depart="7.84" from="-534" to="-332" />
    <trip id="197" depart="7.88" from="390" to="565" />
    <trip id="198" depart="7.92" from="620" to="-11" />
    <trip id="199" depart="7.96" from="-38" to="503" />
    <trip id="200" depart="8.00" from="-653" to="-584" />
    <trip id="201" depart="8.04" from="-581" to="330" />
    <trip id="202" depart="8.08" from="569" to="-121" />
    <trip id="203" depart="8.12" from="544" to="400" />
    <trip id="204" depart="8.16" from="-25" to="368" />
    <trip id="205" depart="8.20" from="-615" to="119" />
    <trip id="206" depart="8.24" from="-336" to="138" />
    <trip id="207" depart="8.28" from="-400" to="336" />
    <trip id="208" depart="8.32" from="38" to="-569" />
    <trip id="209" depart="8.36" from="584" to="661" />
    <trip id="210" depart="8.40" from="-536" to="119" />
    <trip id="211" depart="8.44" from="-630" to="375" />
    <trip id="212" depart="8.48" from="597" to="-647" />
    <trip id="213" depart="8.52" from="400" to="667" />
    <trip id="214" depart="8.56" from="123" to="-619" />
    <trip id="215" depart="8.60" from="128" to="-615" />
    <trip id="216" depart="8.64" from="-123" to="-396" />
    <trip id="217" depart="8.68" from="-116" to="534" />
    <trip id="218" depart="8.72" from="-615" to="117" />
    <trip id="219" depart="8.76" from="423" to="-619" />
    <trip id="220" depart="8.80" from="-536" to="-615" />
    <trip id="221" depart="8.84" from="-390" to="-117" />
    <trip id="222" depart="8.88" from="-620" to="-119" />
    <trip id="223" depart="8.92" from="-565" to="-584" />
    <trip id="224" depart="8.96" from="-332" to="-362" />
    <trip id="225" depart="9.00" from="-584" to="-619" />
    <trip id="226" depart="9.04" from="-210" to="11" />
    <trip id="227" depart="9.08" from="-588" to="802" />
    <trip id="228" depart="9.12" from="-802" to="-584" />
    <trip id="229" depart="9.16" from="364" to="-516" />
    <trip id="230" depart="9.20" from="-401" to="117" />
    <trip id="231" depart="9.24" from="117" to="630" />
    <trip id="232" depart="9.28" from="15" to="210" />
    <trip id="233" depart="9.32" from="-601" to="534" />
    <trip id="234" depart="9.36" from="-615" to="401" />
    <trip id="235" depart="9.40" from="-653" to="364" />
    <trip id="236" depart="9.44" from="-396" to="-11" />
    <trip id="237" depart="9.48" from="138" to="-582" />
    <trip id="238" depart="9.52" from="-661" to="-123" />
    <trip id="239" depart="9.56" from="-338" to="-396" />
    <trip id="240" depart="9.60" from="117" to="386" />
    <trip id="241" depart="9.64" from="628" to="355" />
    <trip id="242" depart="9.68" from="116" to="790" />
    <trip id="243" depart="9.72" from="121" to="332" />
    <trip id="244" depart="9.76" from="17" to="597" />
    <trip id="245" depart="9.80" from="-332" to="-364" />
    <trip id="246" depart="9.84" from="-804" to="-117" />
    <trip id="247" depart="9.88" from="38" to="619" />
    <trip id="248" depart="9.92" from="-538" to="-3" />
    <trip id="249" depart="9.96" from="-396" to="-360" />
    <trip id="250" depart="10.00" from="-804" to="597" />
    <trip id="251" depart="10.04" from="-348" to="603" />
    <trip id="252" depart="10.08" from="-128" to="325" />
    <trip id="253" depart="10.12" from="-403" to="-360" />
    <trip id="254" depart="10.16" from="617" to="-123" />
    <trip id="255" depart="10.20" from="-117" to="-138" />
    <trip id="256" depart="10.24" from="-338" to="-518" />
    <trip id="257" depart="10.28" from="388" to="332" />
    <trip id="258" depart="10.32" from="-653" to="119" />
    <trip id="259" depart="10.36" from="-7" to="123" />
    <trip id="260" depart="10.40" from="-400" to="319" />
    <trip id="261" depart="10.44" from="-126" to="-9" />
    <trip id="262" depart="10.48" from="-326" to="-608" />
    <trip id="263" depart="10.52" from="326" to="388" />
    <trip id="264" depart="10.56" from="348" to="336" />
    <trip id="265" depart="10.60" from="-117" to="128" />
    <trip id="266" depart="10.64" from="-597" to="653" />
    <trip id="267" depart="10.68" from="-603" to="-647" />
    <trip id="268" depart="10.72" from="-804" to="-544" />
    <trip id="269" depart="10.76" from="-3" to="396" />
    <trip id="270" depart="10.80" from="-326" to="653" />
    <trip id="271" depart="10.84" from="-594" to="125" />
    <trip id="272" depart="10.88" from="-661" to="368" />
    <trip id="273" depart="10.92" from="-368" to="319" />
    <trip id="274" depart="10.96" from="333" to="15" />
    <trip id="275" depart="11.00" from="390" to="-313" />
    <trip id="276" depart="11.04" from="423" to="-581" />
    <trip id="277" depart="11.08" from="-396" to="19" />
    <trip id="278" depart="11.12" from="-802" to="518" />
    <trip id="279" depart="11.16" from="-653" to="-348" />
    <trip id="280" depart="11.20" from="-536" to="582" />
    <trip id="281" depart="11.24" from="-355" to="-620" />
    <trip id="282" depart="11.28" from="-368" to="518" />
    <trip id="283" depart="11.32" from="565" to="348" />
    <trip id="284" depart="11.36" from="13" to="210" />
    <trip id="285" depart="11.40" from="-17" to="667" />
    <trip id="286" depart="11.44" from="333" to="-584" />
    <trip id="287" depart="11.48" from="534" to="-125" />
    <trip id="288" depart="11.52" from="396" to="-582" />
    <trip id="289" depart="11.56" from="-534" to="-13" />
    <trip id="290" depart="11.60" from="667" to="348" />
    <trip id="291" depart="11.64" from="-804" to="336" />
    <trip id="292" depart="11.68" from="-584" to="624" />
    <trip id="293" depart="11.72" from="534" to="17" />
    <trip id="294" depart="11.76" from="-362" to="-64" />
    <trip id="295" depart="11.80" from="-594" to="423" />
    <trip id="296" depart="11.84" from="536" to="330" />
    <trip id="297" depart="11.88" from="-608" to="665" />
    <trip id="298" depart="11.92" from="-355" to="-620" />
    <trip id="299" depart="11.96" from="-116" to="-390" />
    <trip id="300" depart="12.00" from="534" to="601" />
    <trip id="301" depart="12.04" from="364" to="-565" />
    <trip id="302" depart="12.08" from="7" to="-390" />
    <trip id="303" depart="12.12" from="-534" to="25" />
    <trip id="304" depart="12.16" from="-581" to="608" />
    <trip id="305" depart="12.20" from="375" to="603" />
    <trip id="306" depart="12.24" from="423" to="647" />
    <trip id="307" depart="12.28" from="582" to="17" />
    <trip id="308" depart="12.32" from="597" to="-348" />
    <trip id="309" depart="12.36" from="125" to="-617" />
    <trip id="310" depart="12.40" from="-319" to="-364" />
    <trip id="311" depart="12.44" from="-386" to="617" />
    <trip id="312" depart="12.48" from="9" to="534" />
    <trip id="313" depart="12.52" from="-64" to="584" />
    <trip id="314" depart="12.56" from="667" to="-332" />
    <trip id="315" depart="12.60" from="13" to="128" />
    <trip id="316" depart="12.64" from="-620" to="-116" />
    <trip id="317" depart="12.68" from="-594" to="330" />
    <trip id="318" depart="12.72" from="-608" to="388" />
    <trip id="319" depart="12.76" from="-25" to="804" />
    <trip id="320" depart="12.80" from="423" to="802" />
    <trip id="321" depart="12.84" from="667" to="544" />
    <trip id="322" depart="12.88" from="-653" to="-390" />
    <trip id="323" depart="12.92" from="125" to="15" />
    <trip id="324" depart="12.96" from="-38" to="-667" />
    <trip id="325" depart="13.00" from="-518" to="-396" />
    <trip id="326" depart="13.04" from="-653" to="624" />
    <trip id="327" depart="13.08" from="-588" to="-313" />
    <trip id="328" depart="13.12" from="7" to="653" />
    <trip id="329" depart="13.16" from="-25" to="601" />
    <trip id="330" depart="13.20" from="-601" to="-313" />
    <trip id="331" depart="13.24" from="333" to="126" />
    <trip id="332" depart="13.28" from="-364" to="-38" />
    <trip id="333" depart="13.32" from="-326" to="608" />
    <trip id="334" depart="13.36" from="403" to="121" />
    <trip id="335" depart="13.40" from="-601" to="-401" />
    <trip id="336" depart="13.44" from="64" to="-388" />
    <trip id="337" depart="13.48" from="-348" to="603" />
    <trip id="338" depart="13.52" from="-117" to="138" />
    <trip id="339" depart="13.56" from="624" to="313" />
    <trip id="340" depart="13.60" from="-597" to="-388" />
    <trip id="341" depart="13.64" from="-516" to="338" />
    <trip id="342" depart="13.68" from="375" to="-647" />
    <trip id="343" depart="13.72" from="624" to="-584" />
    <trip id="344" depart="13.76" from="-630" to="-647" />
    <trip id="345" depart="13.80" from="-538" to="390" />
    <trip id="346" depart="13.84" from="516" to="-540" />
    <trip id="347" depart="13.88" from="-119" to="802" />
    <trip id="348" depart="13.92" from="-630" to="355" />
    <trip id="349" depart="13.96" from="364" to="-125" />
    <trip id="350" depart="14.00" from="-581" to="-38" />
    <trip id="351" depart="14.04" from="390" to="601" />
    <trip id="352" depart="14.08" from="-624" to="540" />
    <trip id="353" depart="14.12" from="403" to="-628" />
    <trip id="354" depart="14.16" from="-661" to="-210" />
    <trip id="355" depart="14.20" from="-325" to="-569" />
    <trip id="356" depart="14.24" from="-396" to="-15" />
    <trip id="357" depart="14.28" from="-790" to="-390" />
    <trip id="358" depart="14.32" from="-38" to="-518" />
    <trip id="359" depart="14.36" from="-584" to="653" />
    <trip id="360" depart="14.40" from="15" to="647" />
    <trip id="361" depart="14.44" from="597" to="-313" />
    <trip id="362" depart="14.48" from="-620" to="-617" />
    <trip id="363" depart="14.52" from="-544" to="348" />
    <trip id="364" depart="14.56" from="400" to="360" />
    <trip id="365" depart="14.60" from="396" to="-25" />
    <trip id="366" depart="14.64" from="-619" to="-368" />
    <trip id="367" depart="14.68" from="-601" to="9" />
    <trip id="368" depart="14.72" from="360" to="-597" />
    <trip id="369" depart="14.76" from="-812" to="-348" />
    <trip id="370" depart="14.80" from="-388" to="338" />
    <trip id="371" depart="14.84" from="-401" to="-313" />
    <trip id="372" depart="14.88" from="-380" to="-405" />
    <trip id="373" depart="14.92" from="-330" to="-619" />
    <trip id="374" depart="14.96" from="584" to="-615" />
    <trip id="375" depart="15.00" from="-588" to="-13" />
    <trip id="376" depart="15.04" from="-608" to="9" />
    <trip id="377" depart="15.08" from="-647" to="17" />
    <trip id="378" depart="15.12" from="-588" to="-332" />
    <trip id="379" depart="15.16" from="-665" to="790" />
    <trip id="380" depart="15.20" from="-538" to="597" />
    <trip id="381" depart="15.24" from="-388" to="313" />
    <trip id="382" depart="15.28" from="-661" to="-11" />
    <trip id="383" depart="15.32" from="-584" to="-540" />
    <trip id="384" depart="15.36" from="617" to="25" />
    <trip id="385" depart="15.40" from="617" to="584" />
    <trip id="386" depart="15.44" from="15" to="534" />
    <trip id="387" depart="15.48" from="326" to="584" />
    <trip id="388" depart="15.52" from="617" to="-584" />
    <trip id="389" depart="15.56" from="-64" to="-396" />
    <trip id="390" depart="15.60" from="661" to="360" />
    <trip id="391" depart="15.64" from="401" to="-581" />
    <trip id="392" depart="15.68" from="-336" to="-400" />
    <trip id="393" depart="15.72" from="-594" to="121" />
    <trip id="394" depart="15.76" from="364" to="123" />
    <trip id="395" depart="15.80" from="-25" to="364" />
    <trip id="396" depart="15.84" from="617" to="210" />
    <trip id="397" depart="15.88" from="15" to="518" />
    <trip id="398" depart="15.92" from="661" to="-536" />
    <trip id="399" depart="15.96" from="-388" to="-313" />
    <trip id="400" depart="16.00" from="624" to="-400" />
</trips>
