<?xml version="1.0" encoding="UTF-8"?>

<!-- generated on Thu Jun  8 00:31:53 2017 by SUMO duarouter Version 0.28.0
<?xml version="1.0" encoding="UTF-8"?>

<configuration xmlns:xsi="http://www.w3.org/2001/XMLSchema-instance" xsi:noNamespaceSchemaLocation="http://sumo.dlr.de/xsd/duarouterConfiguration.xsd">

    <input>
        <net-file value="net.net.xml"/>
        <trip-files value="NewTrips.trip.xml"/>
    </input>

    <output>
        <output-file value="SecondDatasetRoutes.rou.xml"/>
    </output>

</configuration>
-->

<routes xmlns:xsi="http://www.w3.org/2001/XMLSchema-instance" xsi:noNamespaceSchemaLocation="http://sumo.dlr.de/xsd/routes_file.xsd">
    <vehicle id="0" depart="0.00">
        <route edges="121 326 -313 319 639 876 -1535 -1533 -1441"/>
    </vehicle>
    <vehicle id="1" depart="0.02">
        <route edges="1767 -880 -639 -319 -117 -15 -3 7 -7"/>
    </vehicle>
    <vehicle id="2" depart="0.04">
        <route edges="-535 -365 -344 -125 121 326 -313 319 639 876 -1359 1363 1429 1501 1773"/>
    </vehicle>
    <vehicle id="3" depart="0.06">
        <route edges="-1882 -1523 1517 1783 -1883 -1526"/>
    </vehicle>
    <vehicle id="4" depart="0.08">
        <route edges="-1775 -1501 -1429 -1363 1359 -876 -639 639"/>
    </vehicle>
    <vehicle id="5" depart="0.10">
        <route edges="-349 -210 -25 17 38 319 639 876 -1359"/>
    </vehicle>
    <vehicle id="6" depart="0.12">
        <route edges="-698 -11 3 15 117 319 639 876 -1535"/>
    </vehicle>
    <vehicle id="7" depart="0.14">
        <route edges="-1342 -1093 -1005 -612 608 -614 613 -601"/>
    </vehicle>
    <vehicle id="8" depart="0.16">
        <route edges="313 -313 325 589 -1415 -1357"/>
    </vehicle>
    <vehicle id="9" depart="0.18">
        <route edges="1343 -1199 -1027 -698 -11 9 25 128"/>
    </vehicle>
    <vehicle id="10" depart="0.20">
        <route edges="-1373 1359 -876 -639 -319 313 -326 -121 125 -570 -379"/>
    </vehicle>
    <vehicle id="11" depart="0.22">
        <route edges="-1891 -1526 1524 1533 1535"/>
    </vehicle>
    <vehicle id="12" depart="0.24">
        <route edges="-612 -577 -383 -128 126 -125"/>
    </vehicle>
    <vehicle id="13" depart="0.26">
        <route edges="319 -319 313 -326 -121 125 344 365"/>
    </vehicle>
    <vehicle id="14" depart="0.28">
        <route edges="365 -365 -344 -125 121 326 -116"/>
    </vehicle>
    <vehicle id="15" depart="0.30">
        <route edges="-1357 1494 -1447 -1427 1429 1517"/>
    </vehicle>
    <vehicle id="16" depart="0.32">
        <route edges="-117 117 319 639 876 -1535 -1447"/>
    </vehicle>
    <vehicle id="17" depart="0.34">
        <route edges="3 13 -17 25 210 349"/>
    </vehicle>
    <vehicle id="18" depart="0.36">
        <route edges="-686 -597 -505 523 -1415 -1357 1494 1535 -1359 1373"/>
    </vehicle>
    <vehicle id="19" depart="0.38">
        <route edges="492 570 -125 121 326 -313 319 639 876 -1359 1363 1429 1523 -1774"/>
    </vehicle>
    <vehicle id="20" depart="0.40">
        <route edges="1535 -876 -639 -319 325 588 -588"/>
    </vehicle>
    <vehicle id="21" depart="0.42">
        <route edges="-505 -338 -123 125 344 365 535 601"/>
    </vehicle>
    <vehicle id="22" depart="0.44">
        <route edges="-505 -338 -123 -19 -9 11 698 1027 1199 -1199"/>
    </vehicle>
    <vehicle id="23" depart="0.46">
        <route edges="-325 319 639 876 -1535 -1447 1447"/>
    </vehicle>
    <vehicle id="24" depart="0.48">
        <route edges="-1494 -880 -639 -319 313 -326 326"/>
    </vehicle>
    <vehicle id="25" depart="0.50">
        <route edges="-1345 -1342 -1093 -1029 -728 -11 3 15 117 319 639 876 -1535 -1533 -1524 1526"/>
    </vehicle>
    <vehicle id="26" depart="0.52">
        <route edges="1345 -1345 -1342 -1093 -1029 -728 -11 3 15 119 332 592 650"/>
    </vehicle>
    <vehicle id="27" depart="0.54">
        <route edges="-15 13 -17 25 210"/>
    </vehicle>
    <vehicle id="28" depart="0.56">
        <route edges="-19 -9 11 728 1029 1093 1342"/>
    </vehicle>
    <vehicle id="29" depart="0.58">
        <route edges="365 -365 -349 -381 383 577 612 1005"/>
    </vehicle>
    <vehicle id="30" depart="0.60">
        <route edges="-64 -17 25 128 383 579 614"/>
    </vehicle>
    <vehicle id="31" depart="0.62">
        <route edges="-356 -7 9 19 123 338 523 -1415 1425"/>
    </vehicle>
    <vehicle id="32" depart="0.64">
        <route edges="-1883 -1526 1524 1533 1535 -876 -639 -319 -38 -17 25 128 383 577 -577"/>
    </vehicle>
    <vehicle id="33" depart="0.66">
        <route edges="1494 1535 -876 -639 -319 -117 119 332"/>
    </vehicle>
    <vehicle id="34" depart="0.68">
        <route edges="-523 517 -588 -325 -117 119 332"/>
    </vehicle>
    <vehicle id="35" depart="0.70">
        <route edges="-7 3 15 117 325 588"/>
    </vehicle>
    <vehicle id="36" depart="0.72">
        <route edges="730 876 -1359 1363 1429 1517 1783"/>
    </vehicle>
    <vehicle id="37" depart="0.74">
        <route edges="-119 117 319 639 876 -1535 -1533 -1524 1526 -1526"/>
    </vehicle>
    <vehicle id="38" depart="0.76">
        <route edges="1771 -1775 -1501 -1429 -1363 1359 -876 882"/>
    </vehicle>
    <vehicle id="39" depart="0.78">
        <route edges="117 319 639 876 -1359 1363 1429 1517 -1517"/>
    </vehicle>
    <vehicle id="40" depart="0.80">
        <route edges="1431 1524 1533 1535 -876 -639 -319 313 -326 -64"/>
    </vehicle>
    <vehicle id="41" depart="0.82">
        <route edges="492 -379 -349 -381 383 577 612 1005 1093 -1093"/>
    </vehicle>
    <vehicle id="42" depart="0.84">
        <route edges="569 -569 -365 -344 -125 121 326 -313 319 639 876 -1359 -1323"/>
    </vehicle>
    <vehicle id="43" depart="0.86">
        <route edges="-533 -365 -344 -125 121 326 -313 319 639 876 -1359 1363 1429 1501 1773"/>
    </vehicle>
    <vehicle id="44" depart="0.88">
        <route edges="642 -642 -592 -332 -119 -15 13 -17 25 128 383 -383"/>
    </vehicle>
    <vehicle id="45" depart="0.90">
        <route edges="1388 -1388 -533 -365 -344 -125 121 326 -313 319 639 876 -1359 1363 1429 1501 1775"/>
    </vehicle>
    <vehicle id="46" depart="0.92">
        <route edges="880 1357 1415 -523 -338 336 361 -361"/>
    </vehicle>
    <vehicle id="47" depart="0.94">
        <route edges="-730 730 876 -1535 -1533 -1524 1526 -1526"/>
    </vehicle>
    <vehicle id="48" depart="0.96">
        <route edges="837 -837 -330 -119 117 325 588 -517 -338 336 504"/>
    </vehicle>
    <vehicle id="49" depart="0.98">
        <route edges="-344 -125 123 338 523 -1415 -1357 -1767 -1493"/>
    </vehicle>
    <vehicle id="50" depart="1.00">
        <route edges="-313 319 639 876 -1359 1363 1429 1517 1797"/>
    </vehicle>
    <vehicle id="51" depart="1.02">
        <route edges="642 -642 -592 -332 -119 117 325 589 -1415 -1357"/>
    </vehicle>
    <vehicle id="52" depart="1.04">
        <route edges="-1199 -1027 -698 -11 9 19 123 338 505 597 686"/>
    </vehicle>
    <vehicle id="53" depart="1.06">
        <route edges="612 1011 1345 1404"/>
    </vehicle>
    <vehicle id="54" depart="1.08">
        <route edges="-338 338 517 -588 -325 -117 119 332 592 -592"/>
    </vehicle>
    <vehicle id="55" depart="1.10">
        <route edges="492 570 -125 123 338 523 -1415 -1357 1494 -1533 -1524 1526 1883"/>
    </vehicle>
    <vehicle id="56" depart="1.12">
        <route edges="-349 -210 -25 17 -13 15 119 332 592 642 846"/>
    </vehicle>
    <vehicle id="57" depart="1.14">
        <route edges="650 -650 -592 -332 -119 117 325 588 -517 -338 336 361"/>
    </vehicle>
    <vehicle id="58" depart="1.16">
        <route edges="696 -696 -11 3 15 117 319 639 880"/>
    </vehicle>
    <vehicle id="59" depart="1.18">
        <route edges="613 -585 349 -344 -125 123 338 505 597 684"/>
    </vehicle>
    <vehicle id="60" depart="1.20">
        <route edges="1524 1533 -1494 1357 1415 -523 505"/>
    </vehicle>
    <vehicle id="61" depart="1.22">
        <route edges="-383 -128 -25 17 -13 15 119 332"/>
    </vehicle>
    <vehicle id="62" depart="1.24">
        <route edges="-579 -383 -128 -25 17 38 -38"/>
    </vehicle>
    <vehicle id="63" depart="1.26">
        <route edges="-650 -592 -332 -119 -15 -3 7"/>
    </vehicle>
    <vehicle id="64" depart="1.28">
        <route edges="126 -125 123 338 523 -1415 -1357 1494 -1533 -1524 1526 -1526"/>
    </vehicle>
    <vehicle id="65" depart="1.30">
        <route edges="-379 -349 -381 383 579"/>
    </vehicle>
    <vehicle id="66" depart="1.32">
        <route edges="-1774 -1501 -1429 -1363 -1323 -1033 -734 732 837 -674 642 -642"/>
    </vehicle>
    <vehicle id="67" depart="1.34">
        <route edges="1773 -1798 -1523 -1429 -1363 -1323 -1033 -734 732 837 -674"/>
    </vehicle>
    <vehicle id="68" depart="1.36">
        <route edges="-1404 -1345 -1342 -1093 -1029 -728 -11 3 15 117 319 639 876 -1535 -1533 -1524 1526"/>
    </vehicle>
    <vehicle id="69" depart="1.38">
        <route edges="601 -585 -210 -25 19"/>
    </vehicle>
    <vehicle id="70" depart="1.40">
        <route edges="123 338 517 -588 -325 319"/>
    </vehicle>
    <vehicle id="71" depart="1.42">
        <route edges="-1431 1447 -1494 1357 1415 -523 -338 -123 121"/>
    </vehicle>
    <vehicle id="72" depart="1.44">
        <route edges="-17 17 38 319 639"/>
    </vehicle>
    <vehicle id="73" depart="1.46">
        <route edges="1771 -1775 -1501 -1429 -1363 1359 -876 -639 -319 -38 -17 25 128 383 577 612"/>
    </vehicle>
    <vehicle id="74" depart="1.48">
        <route edges="601 -585 -210 -25 17 38 319 639 876 -1359 1363 1429 1517 -1517"/>
    </vehicle>
    <vehicle id="75" depart="1.50">
        <route edges="613 -585 -210 -25 17"/>
    </vehicle>
    <vehicle id="76" depart="1.52">
        <route edges="-1483 -1425 1415 -589 588"/>
    </vehicle>
    <vehicle id="77" depart="1.54">
        <route edges="1427 1447 1535 -876 -639 -319 -117 -15 -3 7 356"/>
    </vehicle>
    <vehicle id="78" depart="1.56">
        <route edges="-365 -349 585 -613 618 867"/>
    </vehicle>
    <vehicle id="79" depart="1.58">
        <route edges="597 -597 -505 523 -1415 -1357 1494 -1447"/>
    </vehicle>
    <vehicle id="80" depart="1.60">
        <route edges="-1774 -1501 -1429 -1363 1359 -876 -639 -319 313 -326 -121 125 344 365 535"/>
    </vehicle>
    <vehicle id="81" depart="1.62">
        <route edges="1501 -1501 -1429 -1363 1359 -876 -639 -319 -38 -17 25 -25"/>
    </vehicle>
    <vehicle id="82" depart="1.64">
        <route edges="-1391 -569 -365 -344 -125 121 326 -313 319 -319"/>
    </vehicle>
    <vehicle id="83" depart="1.66">
        <route edges="-639 -319 313 -326 -121 125 -570 -492"/>
    </vehicle>
    <vehicle id="84" depart="1.68">
        <route edges="126 -125 123 338 523 -1415 -1357 1494"/>
    </vehicle>
    <vehicle id="85" depart="1.70">
        <route edges="-577 -383 -128 -25 19 123 338 523 -1415 1425"/>
    </vehicle>
    <vehicle id="86" depart="1.72">
        <route edges="-17 -9 11 728 1029 1093 -1093"/>
    </vehicle>
    <vehicle id="87" depart="1.74">
        <route edges="326 -116 -13 -3 7 356 -348"/>
    </vehicle>
    <vehicle id="88" depart="1.76">
        <route edges="-1774 -1501 -1429 -1363 1359 -876 -639 623"/>
    </vehicle>
    <vehicle id="89" depart="1.78">
        <route edges="-348 -138 -25 19 123 338 523"/>
    </vehicle>
    <vehicle id="90" depart="1.80">
        <route edges="15 117 319 625 734 1033"/>
    </vehicle>
    <vehicle id="91" depart="1.82">
        <route edges="592 -592 -332 -119 -15 13 -17 25 128 383 579"/>
    </vehicle>
    <vehicle id="92" depart="1.84">
        <route edges="698 -698 -11 3 15 117 319 639 876 -1359 1363 1429 1499 1769"/>
    </vehicle>
    <vehicle id="93" depart="1.86">
        <route edges="-614 -579 -383 -128 -25 17 38 319 639 876 -1359 1363 1429 1501 1775 -1775"/>
    </vehicle>
    <vehicle id="94" depart="1.88">
        <route edges="332 -332 330 -732 734 1033 1323 1363 1429 1517 -1517"/>
    </vehicle>
    <vehicle id="95" depart="1.90">
        <route edges="-1373 1359 -876 -639 -319 -117 -15 -3"/>
    </vehicle>
    <vehicle id="96" depart="1.92">
        <route edges="-880 -639 -319 -117 -15 -3 7 333"/>
    </vehicle>
    <vehicle id="97" depart="1.94">
        <route edges="-570 570 -126 138 -333 679 -870 1029"/>
    </vehicle>
    <vehicle id="98" depart="1.96">
        <route edges="492 -379 -349 -381 383 577 612 1011"/>
    </vehicle>
    <vehicle id="99" depart="1.98">
        <route edges="1769 -1517 -1429 1427 1447 -1494 1357 1415 -523 505 -504"/>
    </vehicle>
    <vehicle id="100" depart="2.00">
        <route edges="383 -383 -128 -25 17 38 319 639 876 -1359 1363 1429 1523 -1774"/>
    </vehicle>
    <vehicle id="101" depart="2.02">
        <route edges="1441 1533 -1494 1357 1415 -523 505"/>
    </vehicle>
    <vehicle id="102" depart="2.04">
        <route edges="1524 1533 1535 -876 -639 -319 -117 -15 -3 11 728 1029 -1005 -612"/>
    </vehicle>
    <vehicle id="103" depart="2.06">
        <route edges="-618 613 -601 -535 533 -533"/>
    </vehicle>
    <vehicle id="104" depart="2.08">
        <route edges="1345 -1345 -1342 -1093 -1029 -728 -11 3 13 64 326"/>
    </vehicle>
    <vehicle id="105" depart="2.10">
        <route edges="-1429 1427 1447 -1494 1357 1425 1483"/>
    </vehicle>
    <vehicle id="106" depart="2.12">
        <route edges="344 -344 -125 123 338 523 -1415 -1357 -1767"/>
    </vehicle>
    <vehicle id="107" depart="2.14">
        <route edges="349 -349 -381 383 577 612 1011 1345 -1345"/>
    </vehicle>
    <vehicle id="108" depart="2.16">
        <route edges="1526 -1526 1524 1533 -1494 1357 1415 -523 -338 336 361"/>
    </vehicle>
    <vehicle id="109" depart="2.18">
        <route edges="-19 -9 11 728 1029 -1005 1011"/>
    </vehicle>
    <vehicle id="110" depart="2.20">
        <route edges="639 -639 -319 -117 -15 -3 11 728 -728"/>
    </vehicle>
    <vehicle id="111" depart="2.22">
        <route edges="-517 523 -1415 1425 1483"/>
    </vehicle>
    <vehicle id="112" depart="2.24">
        <route edges="-504 -336 -123 -19 25 128 383 577 608"/>
    </vehicle>
    <vehicle id="113" depart="2.26">
        <route edges="-116 -17 25 138 -138"/>
    </vehicle>
    <vehicle id="114" depart="2.28">
        <route edges="-880 -639 -319 -38 -17 25 210 -210"/>
    </vehicle>
    <vehicle id="115" depart="2.30">
        <route edges="-730 -623 -319 313 -326 -121"/>
    </vehicle>
    <vehicle id="116" depart="2.32">
        <route edges="-138 -25 17 38 319 639 876 -1359 1363 1429"/>
    </vehicle>
    <vehicle id="117" depart="2.34">
        <route edges="121 326 -313 319 639 876 -1359 1363 1429 1501 1775 -1775"/>
    </vehicle>
    <vehicle id="118" depart="2.36">
        <route edges="-348 -138 -25 17 38 319 625"/>
    </vehicle>
    <vehicle id="119" depart="2.38">
        <route edges="313 -313 325 589 -1415 -1357"/>
    </vehicle>
    <vehicle id="120" depart="2.40">
        <route edges="592 -592 -332 -119 117 325 588 -517 -338 -123"/>
    </vehicle>
    <vehicle id="121" depart="2.42">
        <route edges="1357 1415 -523 -338 -123 -19 -9 7 333"/>
    </vehicle>
    <vehicle id="122" depart="2.44">
        <route edges="-1883 -1526 1524 1533 1535 -876 -639 625 732 837 -674 650 -650"/>
    </vehicle>
    <vehicle id="123" depart="2.46">
        <route edges="592 674 -837 -732 734 1033 1323 1363 1429 1499 -1499"/>
    </vehicle>
    <vehicle id="124" depart="2.48">
        <route edges="116 -313 -117 119 332 592 642 840"/>
    </vehicle>
    <vehicle id="125" depart="2.50">
        <route edges="1774 -1523 -1429 -1363 1359 -876 -639 -319 -38 -17 25 128 383 577 612"/>
    </vehicle>
    <vehicle id="126" depart="2.52">
        <route edges="-17 -9 11 728 1029 -1005 1011"/>
    </vehicle>
    <vehicle id="127" depart="2.54">
        <route edges="-679 -7 3 15 117 319 639 876 -1359"/>
    </vehicle>
    <vehicle id="128" depart="2.56">
        <route edges="-125 121 -64 38"/>
    </vehicle>
    <vehicle id="129" depart="2.58">
        <route edges="1499 -1499 -1429 -1363 1359 -876 -639 -319 -38 -17 25 138 -333"/>
    </vehicle>
    <vehicle id="130" depart="2.60">
        <route edges="1357 1415 -589 -325 -117 119 330"/>
    </vehicle>
    <vehicle id="131" depart="2.62">
        <route edges="1493 1767 1357 1415 -523 -338 -123 125 344 365 535 601"/>
    </vehicle>
    <vehicle id="132" depart="2.64">
        <route edges="-313 -117 -15 -3 11 698 1027 1199"/>
    </vehicle>
    <vehicle id="133" depart="2.66">
        <route edges="-1057 -589 -325 -117 119 332 592 650 848"/>
    </vehicle>
    <vehicle id="134" depart="2.68">
        <route edges="-11 3 15 117 319 639 876 -1359 1363 1429 1517 -1769"/>
    </vehicle>
    <vehicle id="135" depart="2.70">
        <route edges="679 -696 -11 9 19 123 338"/>
    </vehicle>
    <vehicle id="136" depart="2.72">
        <route edges="381 -210 -25 17 38 319 639 876 -1359 1363 1429 -1429"/>
    </vehicle>
    <vehicle id="137" depart="2.74">
        <route edges="-1494 1357 1415 -523 -338 -123 -19 25 138"/>
    </vehicle>
    <vehicle id="138" depart="2.76">
        <route edges="570 -125 121 326 -313 -117 119 330 837"/>
    </vehicle>
    <vehicle id="139" depart="2.78">
        <route edges="728 -728 -11 3 15 117 325"/>
    </vehicle>
    <vehicle id="140" depart="2.80">
        <route edges="-1891 -1526 1524 1533 1535 -876 -639 -319 -38 -17 25"/>
    </vehicle>
    <vehicle id="141" depart="2.82">
        <route edges="-585 -210 -25 17 64"/>
    </vehicle>
    <vehicle id="142" depart="2.84">
        <route edges="-696 -11 3 15 119 330 837"/>
    </vehicle>
    <vehicle id="143" depart="2.86">
        <route edges="-1057 -589 -325 -38 -13"/>
    </vehicle>
    <vehicle id="144" depart="2.88">
        <route edges="-1797 -1517 -1429 -1363 1359 -876 -639 -319 -117 -15 -3 7 -7"/>
    </vehicle>
    <vehicle id="145" depart="2.90">
        <route edges="-3 9 25 210 585 -601 -535"/>
    </vehicle>
    <vehicle id="146" depart="2.92">
        <route edges="313 -326 -121 125 344 365 569"/>
    </vehicle>
    <vehicle id="147" depart="2.94">
        <route edges="-13 13 64 -121 125 344 365 569 1391"/>
    </vehicle>
    <vehicle id="148" depart="2.96">
        <route edges="505 -505 -338 -123 125 344 -349 585 -613"/>
    </vehicle>
    <vehicle id="149" depart="2.98">
        <route edges="-579 -383 -128 -25 17 38 319 639 876 -1535 -1533 -1524 1526 1891"/>
    </vehicle>
    <vehicle id="150" depart="3.00">
        <route edges="523 -523 -338 -123 -19 -9 11 -11"/>
    </vehicle>
    <vehicle id="151" depart="3.02">
        <route edges="870 -696 -11 9 19 123 336 361 496"/>
    </vehicle>
    <vehicle id="152" depart="3.04">
        <route edges="1391 -1388 -533 -365 -344 -125 121 326 -313 319 639 876 -1359 1363 1427"/>
    </vehicle>
    <vehicle id="153" depart="3.06">
        <route edges="1883 -1783 -1769 1771 -1775"/>
    </vehicle>
    <vehicle id="154" depart="3.08">
        <route edges="1425 -1425 1415 -523 -338 -123 -19 -9 11 728 1029 1093 1342 -1342"/>
    </vehicle>
    <vehicle id="155" depart="3.10">
        <route edges="-1493 -1425 -1357 1494 -1447 -1427 1429 1523 1798"/>
    </vehicle>
    <vehicle id="156" depart="3.12">
        <route edges="1342 -1342 -1093 -1029 -728 -11 9 19 123 338 523 -1415"/>
    </vehicle>
    <vehicle id="157" depart="3.14">
        <route edges="1343 -1199 -1027 -698 -11 3 13 116 -326"/>
    </vehicle>
    <vehicle id="158" depart="3.16">
        <route edges="-642 -592 -332 -119 -15 -3 11 -11"/>
    </vehicle>
    <vehicle id="159" depart="3.18">
        <route edges="585 -585 -210 -25 17 38 319 639 876 -1359 1363 1429"/>
    </vehicle>
    <vehicle id="160" depart="3.20">
        <route edges="-326 326 -313 319 639 876 -1359 1363 1429 1517"/>
    </vehicle>
    <vehicle id="161" depart="3.22">
        <route edges="-1425 -1357 1494 1535 -1359 1373"/>
    </vehicle>
    <vehicle id="162" depart="3.24">
        <route edges="837 -674 642 846"/>
    </vehicle>
    <vehicle id="163" depart="3.26">
        <route edges="-348 -138 128 383 579 618"/>
    </vehicle>
    <vehicle id="164" depart="3.28">
        <route edges="-325 -38 -17 25 210 585 -601 -535"/>
    </vehicle>
    <vehicle id="165" depart="3.30">
        <route edges="1425 -1425 1415 -523 -338 -123 -19 25 128 383 577 -577"/>
    </vehicle>
    <vehicle id="166" depart="3.32">
        <route edges="-1441 1447 1535 -876 -639 -319 -117 -15 -3 11 696 -870"/>
    </vehicle>
    <vehicle id="167" depart="3.34">
        <route edges="-1775 -1501 -1429 -1363 1359 -876 -639 -319 -38 -17 25 128 383 579 618 -618"/>
    </vehicle>
    <vehicle id="168" depart="3.36">
        <route edges="9 19 125 344 365"/>
    </vehicle>
    <vehicle id="169" depart="3.38">
        <route edges="1342 -1342 -1093 -1029 -728 -11 3 15 117 319 639 876 -1359 1363 1429 1523 1798 -1798"/>
    </vehicle>
    <vehicle id="170" depart="3.40">
        <route edges="569 -569 -365 -344 -125 123 336 -336"/>
    </vehicle>
    <vehicle id="171" depart="3.42">
        <route edges="1429 -1429 -1363 1359 -876 -639 -319 -117 -15 -3 11 728 1029 1093 1342"/>
    </vehicle>
    <vehicle id="172" depart="3.44">
        <route edges="-840 -642 674 -837 -732 734 1033 1323 1363 1429 1523 1798 -1798"/>
    </vehicle>
    <vehicle id="173" depart="3.46">
        <route edges="25 -25 17 38 319 639 876 -1359 1363 1429 1501 1775"/>
    </vehicle>
    <vehicle id="174" depart="3.48">
        <route edges="-319 -117 -15 -3 11 728 1029 1093 1342 1345 -1345"/>
    </vehicle>
    <vehicle id="175" depart="3.50">
        <route edges="-625 -319 -38 -17 25 128"/>
    </vehicle>
    <vehicle id="176" depart="3.52">
        <route edges="-517 523 -1415 -1357 1494 -1447 -1427 1429 1517"/>
    </vehicle>
    <vehicle id="177" depart="3.54">
        <route edges="-608 -577 -383 -128 -25 19 123 338 523 -1415 -1357 1357"/>
    </vehicle>
    <vehicle id="178" depart="3.56">
        <route edges="-577 -383 -128 -25 17 38 319 639 876 -1535 -1533 -1524 -1431"/>
    </vehicle>
    <vehicle id="179" depart="3.58">
        <route edges="-589 -325 319 639 876 -1359 1363 1429 1523 1798"/>
    </vehicle>
    <vehicle id="180" depart="3.60">
        <route edges="-492 -361 -336 338 523 -1415 -1357 1494 -1447 1441"/>
    </vehicle>
    <vehicle id="181" depart="3.62">
        <route edges="-1798 -1523 -1429 -1363 1359 -876 -639 -319 -38 -17 25 128 383 579 618 867"/>
    </vehicle>
    <vehicle id="182" depart="3.64">
        <route edges="348 -356 -7 9 19 123 338 505 -504"/>
    </vehicle>
    <vehicle id="183" depart="3.66">
        <route edges="-1011 1005 -1029 -728 -11 9 19 123 338 505 -505"/>
    </vehicle>
    <vehicle id="184" depart="3.68">
        <route edges="-116 -17 25 128 383 577 612"/>
    </vehicle>
    <vehicle id="185" depart="3.70">
        <route edges="381 -210 -25 17 38 313"/>
    </vehicle>
    <vehicle id="186" depart="3.72">
        <route edges="-17 19 125 -570 -379"/>
    </vehicle>
    <vehicle id="187" depart="3.74">
        <route edges="625 -625 639 880 -1767"/>
    </vehicle>
    <vehicle id="188" depart="3.76">
        <route edges="1199 -1199 -1027 -698 -11 3 15 117 319 621"/>
    </vehicle>
    <vehicle id="189" depart="3.78">
        <route edges="674 -837 -330 -119 117 313 -326 -121 -19"/>
    </vehicle>
    <vehicle id="190" depart="3.80">
        <route edges="64 326 -313 -117 119 332 592 674"/>
    </vehicle>
    <vehicle id="191" depart="3.82">
        <route edges="492 570 -125 121 326 -313 319 639 876 -1359 1363 1429 -1429"/>
    </vehicle>
    <vehicle id="192" depart="3.84">
        <route edges="-325 319 639 876 -1359 1363 1429 1517 -1517"/>
    </vehicle>
    <vehicle id="193" depart="3.86">
        <route edges="1526 -1526 1524 1533 1535 -876 -639 -319 -38 -17 25 210 585 -601"/>
    </vehicle>
    <vehicle id="194" depart="3.88">
        <route edges="-1425 -1357 1494 -1447 -1427"/>
    </vehicle>
    <vehicle id="195" depart="3.90">
        <route edges="492 570 -126 138 -333 679 -679"/>
    </vehicle>
    <vehicle id="196" depart="3.92">
        <route edges="-25 17 38 319 639 880"/>
    </vehicle>
    <vehicle id="197" depart="3.94">
        <route edges="876 -876 -639 -319 -38 -17 25 128 383 579 -579"/>
    </vehicle>
    <vehicle id="198" depart="3.96">
        <route edges="116 -326 -121 125 344 365"/>
    </vehicle>
    <vehicle id="199" depart="3.98">
        <route edges="-1798 -1523 -1429 -1363 1359 -876 -639 -319 313 -326 -121 125"/>
    </vehicle>
    <vehicle id="200" depart="4.00">
        <route edges="-1774 -1501 -1429 -1363 1359 -876 -639 -319 -38 -17 25 128 383 577 608"/>
    </vehicle>
    <vehicle id="201" depart="4.02">
        <route edges="-1798 -1523 -1429 -1363 1359 -876 -639 -319 -38 -17 25 128 383 579 614"/>
    </vehicle>
    <vehicle id="202" depart="4.04">
        <route edges="-11 11 728 1029 -1005 -612 -577"/>
    </vehicle>
    <vehicle id="203" depart="4.06">
        <route edges="-674 674 -837 -732 -625 639 876 -1535 -1533 -1524 1526 -1526"/>
    </vehicle>
    <vehicle id="204" depart="4.08">
        <route edges="-618 613 -585 349 379 -492 -361"/>
    </vehicle>
    <vehicle id="205" depart="4.10">
        <route edges="-505 -338 -123 -19 25 128 383 577 608"/>
    </vehicle>
    <vehicle id="206" depart="4.12">
        <route edges="210 349 -344 -125 123 338 523 -1415 1425 -1425"/>
    </vehicle>
    <vehicle id="207" depart="4.14">
        <route edges="1535 -876 -639 -319 -38 -17 25 128 383 577 608"/>
    </vehicle>
    <vehicle id="208" depart="4.16">
        <route edges="126 -125 121 326 -313 319 639 876 -1359 1363 1429 1501 1775 -1771"/>
    </vehicle>
    <vehicle id="209" depart="4.18">
        <route edges="1093 -1093 -1029 -728 -11 3 15 117 319 639 876 -1535 -1533"/>
    </vehicle>
    <vehicle id="210" depart="4.20">
        <route edges="597 -597 -505 523 -1415 -1357 1494 -1447 -1427 1429 1501"/>
    </vehicle>
    <vehicle id="211" depart="4.22">
        <route edges="-1005 1005 -1029 -728 -11 3 15 117 319 639 876"/>
    </vehicle>
    <vehicle id="212" depart="4.24">
        <route edges="-674 -592 -332 -119 117 325 588 -517 -338 336 361 -361"/>
    </vehicle>
    <vehicle id="213" depart="4.26">
        <route edges="-1427 -1363 1359 -876 -639 -319 -117 -15 -3 11 696 -679"/>
    </vehicle>
    <vehicle id="214" depart="4.28">
        <route edges="-1767 1767 -880 -639 -319 313 -326 326"/>
    </vehicle>
    <vehicle id="215" depart="4.30">
        <route edges="-618 -579 -383 -128 -25 17 38 319 639 876 -1535 -1533 -1524 1526 1891"/>
    </vehicle>
    <vehicle id="216" depart="4.32">
        <route edges="-601 601 -613 614 -608 612 1005 1093 1343"/>
    </vehicle>
    <vehicle id="217" depart="4.34">
        <route edges="-344 -126 138 -333 679 -870"/>
    </vehicle>
    <vehicle id="218" depart="4.36">
        <route edges="325 588 -517 505 597 684"/>
    </vehicle>
    <vehicle id="219" depart="4.38">
        <route edges="-882 -639 -319 -38 64"/>
    </vehicle>
    <vehicle id="220" depart="4.40">
        <route edges="-15 13 -17 25 210 -381"/>
    </vehicle>
    <vehicle id="221" depart="4.42">
        <route edges="1523 -1523 -1429 -1363 1359 -876 -639 -319 -117 -15 -3 11 696 -870"/>
    </vehicle>
    <vehicle id="222" depart="4.44">
        <route edges="333 -138 -25 17 38 319 639 876 -1359 1363 1429 1501 1774"/>
    </vehicle>
    <vehicle id="223" depart="4.46">
        <route edges="-1535 -1494 1357 1415 -523 -338 -123 125 -126"/>
    </vehicle>
    <vehicle id="224" depart="4.48">
        <route edges="-332 -119 -15 13 -17 25 138"/>
    </vehicle>
    <vehicle id="225" depart="4.50">
        <route edges="1493 1767 -880 -639 -319 -117 -15 -3 11 728 1029 -1005"/>
    </vehicle>
    <vehicle id="226" depart="4.52">
        <route edges="319 -319 -38 -17 25 128 383 579 613"/>
    </vehicle>
    <vehicle id="227" depart="4.54">
        <route edges="-840 -642 -592 -332 -119 -15 -3 11 728 1029 1093 1342 1345 -1345"/>
    </vehicle>
    <vehicle id="228" depart="4.56">
        <route edges="-19 25 128 383 577 612"/>
    </vehicle>
    <vehicle id="229" depart="4.58">
        <route edges="-319 313 -326 -121"/>
    </vehicle>
    <vehicle id="230" depart="4.60">
        <route edges="-15 13 64 -121 125 344 365 533"/>
    </vehicle>
    <vehicle id="231" depart="4.62">
        <route edges="613 -585 349 379 -492"/>
    </vehicle>
    <vehicle id="232" depart="4.64">
        <route edges="-361 -336 338 523 -1415 -1357 -880 882 1323"/>
    </vehicle>
    <vehicle id="233" depart="4.66">
        <route edges="1323 1359 -1535 -1494 1357 1415 -523 -338 336 361 -361"/>
    </vehicle>
    <vehicle id="234" depart="4.68">
        <route edges="1773 -1798 -1523 -1429 1427 1441"/>
    </vehicle>
    <vehicle id="235" depart="4.70">
        <route edges="-64 -13 -3 11 728 1029 1093 1342 -1011"/>
    </vehicle>
    <vehicle id="236" depart="4.72">
        <route edges="-577 -383 381 349 365 569 -569"/>
    </vehicle>
    <vehicle id="237" depart="4.74">
        <route edges="-1775 -1501 -1429 1427 1447 -1494 1357 1415 -523 -338 336 361 496"/>
    </vehicle>
    <vehicle id="238" depart="4.76">
        <route edges="-1464 -1388 -533 -365 -344 -125 123"/>
    </vehicle>
    <vehicle id="239" depart="4.78">
        <route edges="-504 -336 338 523 -1415 -1357 -1767 1767"/>
    </vehicle>
    <vehicle id="240" depart="4.80">
        <route edges="-730 -623 -319 -38 -17 25 210 585 -585"/>
    </vehicle>
    <vehicle id="241" depart="4.82">
        <route edges="696 -696 -11 3 15 119 330 837 -837"/>
    </vehicle>
    <vehicle id="242" depart="4.84">
        <route edges="-696 -11 9 19 125 344 365 533 1388 -1391"/>
    </vehicle>
    <vehicle id="243" depart="4.86">
        <route edges="-1771 1769 1783 -1883"/>
    </vehicle>
    <vehicle id="244" depart="4.88">
        <route edges="326 -313 -117 119 330"/>
    </vehicle>
    <vehicle id="245" depart="4.90">
        <route edges="492 -379 -349 -381 383 577 612 -612"/>
    </vehicle>