<?xml version="1.0" encoding="UTF-8"?>

<!-- generated on Fri Jun 23 15:56:20 2017 by SUMO duarouter Version 0.28.0
<?xml version="1.0" encoding="UTF-8"?>

<configuration xmlns:xsi="http://www.w3.org/2001/XMLSchema-instance" xsi:noNamespaceSchemaLocation="http://sumo.dlr.de/xsd/duarouterConfiguration.xsd">

    <input>
        <net-file value="thirdnetwork.net.xml"/>
        <trip-files value="SmallerTrips.trip.xml"/>
    </input>

    <output>
        <output-file value="SmallerRoutes.rou.xml"/>
    </output>

</configuration>
-->

<routes xmlns:xsi="http://www.w3.org/2001/XMLSchema-instance" xsi:noNamespaceSchemaLocation="http://sumo.dlr.de/xsd/routes_file.xsd">
    <vehicle id="0" depart="0.00">
        <route edges="-728 -11 9 19 123 338 523 1057"/>
    </vehicle>
    <vehicle id="1" depart="0.04">
        <route edges="-1005 -612 608 -614 613 -601 -535"/>
    </vehicle>
    <vehicle id="2" depart="0.08">
        <route edges="-330 -119 -15 -3 11 728 1029 1093 1342 1345 1404"/>
    </vehicle>
    <vehicle id="3" depart="0.12">
        <route edges="732 -330 -119 -15 13 -17 25 210 585 -601 -535"/>
    </vehicle>
    <vehicle id="4" depart="0.16">
        <route edges="-381 -128 -25 17 -13 15 119 330"/>
    </vehicle>
    <vehicle id="5" depart="0.20">
        <route edges="837 -837 -330 -119 -15 13 -17 25 210 585"/>
    </vehicle>
    <vehicle id="6" depart="0.24">
        <route edges="1769 -1517 -1429 -1363 1359 -876 -639 -319 313 -326 -121 125 344 -349"/>
    </vehicle>
    <vehicle id="7" depart="0.28">
        <route edges="-1345 -1342 -1093 -1029 -728 -11 3 15 117 325 588"/>
    </vehicle>
    <vehicle id="8" depart="0.32">
        <route edges="1441 1533 -1494 1357 1415 -523 -338 -123 125 344 365 533 -533"/>
    </vehicle>
    <vehicle id="9" depart="0.36">
        <route edges="1388 -1388 -533 -365 -344 -125 121 326 -313 319 -319"/>
    </vehicle>
    <vehicle id="10" depart="0.40">
        <route edges="-332 -119 -15 13 -17 25 128"/>
    </vehicle>
    <vehicle id="11" depart="0.44">
        <route edges="-121 121 326 -313 319 639 876 -1359 1363 1429 1501"/>
    </vehicle>
    <vehicle id="12" depart="0.48">
        <route edges="1359 -876 -639 -319 -117 -15 -3 11 728 1029 1093 1342 1345 1396"/>
    </vehicle>
    <vehicle id="13" depart="0.52">
        <route edges="-1404 -1345 -1342 -1093 -1029 -728 -11 9 19 123 338 523 -1415 1425 -1425"/>
    </vehicle>
    <vehicle id="14" depart="0.56">
        <route edges="1773 -1798 -1523 -1429 -1363 1359 -876 -639 -319 -117 -15 -3 11 728 1029 1093 1342 1345 1404"/>
    </vehicle>
    <vehicle id="15" depart="0.60">
        <route edges="1447 1535 -876 -639 -319 -117 -15 -3 7 679"/>
    </vehicle>
    <vehicle id="16" depart="0.64">
        <route edges="-1363 1359 -876 -639 -319 313 -326 -121 125 344 365 533 1388"/>
    </vehicle>
    <vehicle id="17" depart="0.68">
        <route edges="1029 -1029 -728 -11 9 19 123 338 523 -1415 1425 -1425"/>
    </vehicle>
    <vehicle id="18" depart="0.72">
        <route edges="-1429 1427 1447 -1494 1357 1415 -523 -338 336 361 -361"/>
    </vehicle>
    <vehicle id="19" depart="0.76">
        <route edges="-138 126 -570 -492 496"/>
    </vehicle>
    <vehicle id="20" depart="0.80">
        <route edges="-642 -592 -332 -119 -15 -3 11 728 1029 -1005 -612 608"/>
    </vehicle>
    <vehicle id="21" depart="0.84">
        <route edges="-597 -505 523 -1415 -1357 -880 882"/>
    </vehicle>
    <vehicle id="22" depart="0.88">
        <route edges="-505 523 -1415 -1357 1494 -1447 -1427 1429 1499 1769"/>
    </vehicle>
    <vehicle id="23" depart="0.92">
        <route edges="-1201 -1027 -698 -11 3 15 117 319 639 876 -1535 -1533 -1524"/>
    </vehicle>
    <vehicle id="24" depart="0.96">
        <route edges="138 -138 -25 17 38 319 639 876 -1535 1535"/>
    </vehicle>
    <vehicle id="25" depart="1.00">
        <route edges="-1523 -1429 -1363 1359 -876 -639 -319 325 588 -517"/>
    </vehicle>
    <vehicle id="26" depart="1.04">
        <route edges="732 -732 734 1033 1323 1363 1429 1517 -1769"/>
    </vehicle>
    <vehicle id="27" depart="1.08">
        <route edges="-730 -623 -319 -117 -15 -3 11 698 1027 1199"/>
    </vehicle>
    <vehicle id="28" depart="1.12">
        <route edges="-684 -597 -505 -338 -123 -19 -9 11 698 1027 1199"/>
    </vehicle>
    <vehicle id="29" depart="1.16">
        <route edges="618 -618 -579 -383 -128 -25 19 123 338 505 -505"/>
    </vehicle>
    <vehicle id="30" depart="1.20">
        <route edges="1029 -1005 -612 -577 -383 381 349 -344"/>
    </vehicle>
    <vehicle id="31" depart="1.24">
        <route edges="-1033 -734 -625 -319 313 -326 -121 125 344 365 533"/>
    </vehicle>
    <vehicle id="32" depart="1.28">
        <route edges="-1005 1005 -1029 -728 -11 3 15 117 319 639 876 -1359 1363 1429 1517 -1517"/>
    </vehicle>
    <vehicle id="33" depart="1.32">
        <route edges="-126 -25 -9 11 728"/>
    </vehicle>
    <vehicle id="34" depart="1.36">
        <route edges="64 326 -313 319 639 876 -1359 1363 1429 1523 1798"/>
    </vehicle>
    <vehicle id="35" depart="1.40">
        <route edges="650 -650 -592 -332 -119 -15 13 -17 25 128 383 -383"/>
    </vehicle>
    <vehicle id="36" depart="1.44">
        <route edges="570 -125 121 326 -313 319 639 876 -1359 1363 1429 1501 1774"/>
    </vehicle>
    <vehicle id="37" depart="1.48">
        <route edges="1011 -1342 -1093 -1029 -728 -11 3 15 117 319 639 876 -1535 -1447 1447"/>
    </vehicle>
    <vehicle id="38" depart="1.52">
        <route edges="-365 -344 -125 123 338 505 597 686"/>
    </vehicle>
    <vehicle id="39" depart="1.56">
        <route edges="-1499 -1429 1427 1447 -1494 1357 1415 -523 505"/>
    </vehicle>
    <vehicle id="40" depart="1.60">
        <route edges="-882 -639 -319 -117 -15 -3 11 728 870"/>
    </vehicle>
    <vehicle id="41" depart="1.64">
        <route edges="-381 -128 -25 17 38 319 639 876 -1359 1363 1429 1501 1774"/>
    </vehicle>
    <vehicle id="42" depart="1.68">
        <route edges="-577 -383 -128 -25 17 38 319 639 876 -1535 -1533 -1524"/>
    </vehicle>
    <vehicle id="43" depart="1.72">
        <route edges="-848 -650 674 -837 -732 -625 639 876 -1535 -1533 1533"/>
    </vehicle>
    <vehicle id="44" depart="1.76">
        <route edges="623 -623 -319 313 -326 -121 125 -570"/>
    </vehicle>
    <vehicle id="45" depart="1.80">
        <route edges="-1093 -1029 -728 -11 3 15 117 319 639 880 -1767 -1493"/>
    </vehicle>
    <vehicle id="46" depart="1.84">
        <route edges="-535 -365 -344 -125 121 326 -313 319 639 876 -1359 1363 1429 1517 -1517"/>
    </vehicle>
    <vehicle id="47" depart="1.88">
        <route edges="1033 -882 -639 -319 -38 -17 25 128 383 579 618 867"/>
    </vehicle>
    <vehicle id="48" depart="1.92">
        <route edges="837 -837 -330 -119 117 325 588 -517 505 597"/>
    </vehicle>
    <vehicle id="49" depart="1.96">
        <route edges="-1345 -1342 -1093 -1029 -728 -11 9 19 123 336 361"/>
    </vehicle>
    <vehicle id="50" depart="2.00">
        <route edges="698 -698 -11 3 15 117 319 639 876 -1359 1363 1429 1517"/>
    </vehicle>
    <vehicle id="51" depart="2.04">
        <route edges="-313 319 639 876 -1359 1363 1429 1523 -1523"/>
    </vehicle>
    <vehicle id="52" depart="2.08">
        <route edges="876 -876 -639 -319 -117 -15 -3 11 728 1029 1093 1342 -1011"/>
    </vehicle>
    <vehicle id="53" depart="2.12">
        <route edges="-588 -325 -117 -15 -3 11 698 1027 1201"/>
    </vehicle>
    <vehicle id="54" depart="2.16">
        <route edges="-356 -7 3 15 117 319 639 882 -882"/>
    </vehicle>
    <vehicle id="55" depart="2.20">
        <route edges="-1342 -1093 -1029 -728 -11 3 15 117 319 639 876 -1535 1535"/>
    </vehicle>
    <vehicle id="56" depart="2.24">
        <route edges="623 -623 -319 313 -326 -121 125 344 365 533 1388"/>
    </vehicle>
    <vehicle id="57" depart="2.28">
        <route edges="618 -618 -579 -383 -128 -25 17 -13 15 119 330 837 -674"/>
    </vehicle>
    <vehicle id="58" depart="2.32">
        <route edges="1429 -1429 -1363 1359 -876 -639 -319 -117 -15 -3 11 698 1027 1199 -1199"/>
    </vehicle>
    <vehicle id="59" depart="2.36">
        <route edges="880 1357 1415 -523 -338 -123 -19 25 128 383 -383"/>
    </vehicle>
    <vehicle id="60" depart="2.40">
        <route edges="1523 -1523 -1429 -1363 1359 -876 -639 -319 -117 -15 -3 11 728 1029 -1005"/>
    </vehicle>
    <vehicle id="61" depart="2.44">
        <route edges="-1891 -1526 -1431 -1373 -1323 -1033 1033"/>
    </vehicle>
    <vehicle id="62" depart="2.48">
        <route edges="-126 -25 19 123 338 523 -1415 -1357 1494"/>
    </vehicle>
    <vehicle id="63" depart="2.52">
        <route edges="119 -119 -15 13 -17 25 210 -381"/>
    </vehicle>
    <vehicle id="64" depart="2.56">
        <route edges="613 -585 349 -344 -125 123"/>
    </vehicle>
    <vehicle id="65" depart="2.60">
        <route edges="-492 -361 -336 338 517 -588 -325 -117 119 330 837"/>
    </vehicle>
    <vehicle id="66" depart="2.64">
        <route edges="-1891 -1526 1524 1533 1535 -876 -639 -319 -38 -17 25 -25"/>
    </vehicle>
    <vehicle id="67" depart="2.68">
        <route edges="-613 -579 -383 -128 -25 17 38 319 639 876 -1535 -1533 -1524 -1431"/>
    </vehicle>
    <vehicle id="68" depart="2.72">
        <route edges="336 -336 338 523 -1415 -1357 1494 -1447 -1427 1429"/>
    </vehicle>
    <vehicle id="69" depart="2.76">
        <route edges="1431 1524 1533 -1494 1357 1415 -523 -338 -123 125 344 379"/>
    </vehicle>
    <vehicle id="70" depart="2.80">
        <route edges="-880 -639 -319 313 -326 -121 125 -125"/>
    </vehicle>
    <vehicle id="71" depart="2.84">
        <route edges="-846 -642 -592 -332 -119 117 325 589 -1415 1425"/>
    </vehicle>
    <vehicle id="72" depart="2.88">
        <route edges="1323 1359 -1535 -1494 1357 1425 1483"/>
    </vehicle>
    <vehicle id="73" depart="2.92">
        <route edges="-684 -597 -505 -338 -123 -19 -9 11 728 1029 -1005"/>
    </vehicle>
    <vehicle id="74" depart="2.96">
        <route edges="-116 -13 -3 11 728 1029 -1005 1011"/>
    </vehicle>
    <vehicle id="75" depart="3.00">
        <route edges="1199 -1343 -1093 -1005 -612 -577 -383 381 349 365"/>
    </vehicle>
    <vehicle id="76" depart="3.04">
        <route edges="1323 1359 -1535 -1494 1357 1415 -523 -338 336"/>
    </vehicle>
    <vehicle id="77" depart="3.08">
        <route edges="-1415 1415 -523 -338 -123 125 344 365 569 1391"/>
    </vehicle>
    <vehicle id="78" depart="3.12">
        <route edges="1425 -1425 1415 -523 -338 -123 -19 -9 7 679"/>
    </vehicle>
    <vehicle id="79" depart="3.16">
        <route edges="-846 -642 674 -837 -732 734 1033 1323 1363 1429 1501 -1501"/>
    </vehicle>
    <vehicle id="80" depart="3.20">
        <route edges="1342 -1342 -1093 -1029 -728 -11 3 15 117 319 639 876 -1359 1363 -1363"/>
    </vehicle>
    <vehicle id="81" depart="3.24">
        <route edges="-210 -25 19 123 338 523 -1415 1425 1483"/>
    </vehicle>
    <vehicle id="82" depart="3.28">
        <route edges="-1404 -1345 -1342 -1093 -1029 -728 -11 3 13 38"/>
    </vehicle>
    <vehicle id="83" depart="3.32">
        <route edges="-1883 -1526 1524 1533 1535 -876 -639 -319 -117 -15 -3 11 728 1029 1093"/>
    </vehicle>
    <vehicle id="84" depart="3.36">
        <route edges="-365 -344 -125 121 326 -313 325"/>
    </vehicle>
    <vehicle id="85" depart="3.40">
        <route edges="585 -585 -210 -25 17 38 325"/>
    </vehicle>
    <vehicle id="86" depart="3.44">
        <route edges="-117 117 325 589 -1415 1425 1493"/>
    </vehicle>
    <vehicle id="87" depart="3.48">
        <route edges="-533 -365 -344 -125 121 -64 38"/>
    </vehicle>
    <vehicle id="88" depart="3.52">
        <route edges="-1767 1767 -880 -639 -319 -117 -15 -3 11 728 1029 1093 -1093"/>
    </vehicle>
    <vehicle id="89" depart="3.56">
        <route edges="-128 -25 19 123 338 505 597 684"/>
    </vehicle>
    <vehicle id="90" depart="3.60">
        <route edges="-1429 -1363 1359 -876 -639 -319 313 -326 -121 125 344 365 569"/>
    </vehicle>
    <vehicle id="91" depart="3.64">
        <route edges="138 -138 -25 17 38 319 639 876 -1359 1363 1429 1501 1775"/>
    </vehicle>
    <vehicle id="92" depart="3.68">
        <route edges="-1199 -1027 -698 -11 3 15 117 319 639 876 -1535 -1533 -1524 1526 1883"/>
    </vehicle>
    <vehicle id="93" depart="3.72">
        <route edges="-1429 -1363 -1323 -1033 -734 732 -330 332 -332"/>
    </vehicle>
    <vehicle id="94" depart="3.76">
        <route edges="-1342 -1093 -1029 -728 -11 3 15 117 319 625 732"/>
    </vehicle>
    <vehicle id="95" depart="3.80">
        <route edges="1391 -1388 -533 -365 -344 -125 123 338 523 -1415 1425 1483"/>
    </vehicle>
    <vehicle id="96" depart="3.84">
        <route edges="1767 1494 -1447 -1427 1429 1499 -1499"/>
    </vehicle>
    <vehicle id="97" depart="3.88">
        <route edges="-1427 -1363 1359 -876 -639 -319 -38 -17 25 210 585 -601"/>
    </vehicle>
    <vehicle id="98" depart="3.92">
        <route edges="-1027 -698 -11 3 15 117 319 639 876 -1535 -1533 -1524 -1431"/>
    </vehicle>
    <vehicle id="99" depart="3.96">
        <route edges="123 338 523 -1415 -1357 1494 -1494"/>
    </vehicle>
    <vehicle id="100" depart="4.00">
        <route edges="-504 -336 -123 -19 -9 11 728 1029 1093 1342 -1342"/>
    </vehicle>
    <vehicle id="101" depart="4.04">
        <route edges="-1093 -1029 -728 -11 3 15 117 319 639 882 1323"/>
    </vehicle>
    <vehicle id="102" depart="4.08">
        <route edges="338 523 -1415 -1357 1494 -1447 -1427 1429 1501 1775 -1775"/>
    </vehicle>
    <vehicle id="103" depart="4.12">
        <route edges="123 338 523 -1415 -1357 -880 882 -1033"/>
    </vehicle>
    <vehicle id="104" depart="4.16">
        <route edges="9 17 38 319 639 882 1323"/>
    </vehicle>
    <vehicle id="105" depart="4.20">
        <route edges="1373 1447 -1494 1357 1415 -523 505 -505"/>
    </vehicle>
    <vehicle id="106" depart="4.24">
        <route edges="-1396 -1345 -1342 -1093 -1029 -728 -11 3 15 117 319 639 876 -1359 1363 1429 1523 1882"/>
    </vehicle>
    <vehicle id="107" depart="4.28">
        <route edges="-840 -642 -592 -332 -119 117 313 -326 -121 125 -570 -379"/>
    </vehicle>
    <vehicle id="108" depart="4.32">
        <route edges="-1431 1447 1535 -876 -639 -319 -38 -17 25 128 383 579 618 867"/>
    </vehicle>
    <vehicle id="109" depart="4.36">
        <route edges="1441 1533 -1494 1357 1415 -523 -338 -123 125 344 365 533 1388"/>
    </vehicle>
    <vehicle id="110" depart="4.40">
        <route edges="1533 -1494 1357 1415 -523 -338 -123 125 344 365 533 -533"/>
    </vehicle>
    <vehicle id="111" depart="4.44">
        <route edges="-1323 -1033 -734 732 837 -674 650 -650"/>
    </vehicle>
    <vehicle id="112" depart="4.48">
        <route edges="-1517 -1429 1427 1447 -1494 1357 1415 -589"/>
    </vehicle>
    <vehicle id="113" depart="4.52">
        <route edges="1533 1535 -876 -639 -319 -38 -17"/>
    </vehicle>
    <vehicle id="114" depart="4.56">
        <route edges="-365 -344 -125 123 338 523 -1415 -1357 1494 -1447 -1373"/>
    </vehicle>
    <vehicle id="115" depart="4.60">
        <route edges="116 -313 319 639 876 -1359 1363 1429 1501 -1501"/>
    </vehicle>
    <vehicle id="116" depart="4.64">
        <route edges="-612 612 1005 -1029 -728 -11 3 15 119 332 592 642 846"/>
    </vehicle>
    <vehicle id="117" depart="4.68">
        <route edges="1447 1535 -876 -639 -319 -38 -17 25 210 -381"/>
    </vehicle>
    <vehicle id="118" depart="4.72">
        <route edges="-15 13 -17 25 128 383 577"/>
    </vehicle>
    <vehicle id="119" depart="4.76">
        <route edges="674 -837 -330 -119 117 325 588 -517 -338 336 -336"/>
    </vehicle>
    <vehicle id="120" depart="4.80">
        <route edges="1388 -1388 -533 -365 -344 -125 123 336 504"/>
    </vehicle>
    <vehicle id="121" depart="4.84">
        <route edges="-579 -383 -128 -25 17 38 319 625 734"/>
    </vehicle>
    <vehicle id="122" depart="4.88">
        <route edges="-579 -383 -128 -25 17 116"/>
    </vehicle>
    <vehicle id="123" depart="4.92">
        <route edges="1342 -1011 -612 608 -614 613 -601 -535"/>
    </vehicle>
    <vehicle id="124" depart="4.96">
        <route edges="-1493 -1425 1415 -523 -338 336 361 -361"/>
    </vehicle>
    <vehicle id="125" depart="5.00">
        <route edges="326 -313 319 639 876 -1359 1363 1429 1523 -1523"/>
    </vehicle>
    <vehicle id="126" depart="5.04">
        <route edges="-533 -365 -349 -381 383 577 612 1005 1093 1342"/>
    </vehicle>
    <vehicle id="127" depart="5.08">
        <route edges="-698 -11 9 19 123 336 361 -361"/>
    </vehicle>
    <vehicle id="128" depart="5.12">
        <route edges="1415 -523 -338 -123 -19 -9 7"/>
    </vehicle>
    <vehicle id="129" depart="5.16">
        <route edges="361 -361 -336 338 523 -1415 -1357 1494 -1447 -1427 1429 1501 1774"/>
    </vehicle>
    <vehicle id="130" depart="5.20">
        <route edges="-330 -119 -15 13 -17 25 128"/>
    </vehicle>
    <vehicle id="131" depart="5.24">
        <route edges="121 -121 125 344 365 533 1388"/>
    </vehicle>
    <vehicle id="132" depart="5.28">
        <route edges="-117 117 319 639 876 -1535 -1533 -1441"/>
    </vehicle>
    <vehicle id="133" depart="5.32">
        <route edges="1011 -1342 -1093 -1029 -728 -11 3 15 119 330 837 -837"/>
    </vehicle>
    <vehicle id="134" depart="5.36">
        <route edges="336 -336 338 523 -1415 -1357 1494 -1447 -1427 1429"/>
    </vehicle>
    <vehicle id="135" depart="5.40">
        <route edges="-732 -625 -319 -38 -17 25 210 585"/>
    </vehicle>
    <vehicle id="136" depart="5.44">
        <route edges="1011 -1342 -1093 -1029 -728 -11 9 19 123 338 523 -1415 1425"/>
    </vehicle>
    <vehicle id="137" depart="5.48">
        <route edges="570 -125 123 338 523 -1415 -1357"/>
    </vehicle>
    <vehicle id="138" depart="5.52">
        <route edges="-492 -361 -336 338 523 -1415 -1357 1494 -1447 -1427 1429 1517 -1769"/>
    </vehicle>
    <vehicle id="139" depart="5.56">
        <route edges="-1499 -1429 -1363 1359 -876 -639 -319 -38 -17 25 128 -128"/>
    </vehicle>
    <vehicle id="140" depart="5.60">
        <route edges="313 -313 319 639 876 -1359 1373"/>
    </vehicle>
    <vehicle id="141" depart="5.64">
        <route edges="-1883 -1526 1524 1533 -1494 1357 1415 -523 505 597 686"/>
    </vehicle>
    <vehicle id="142" depart="5.68">
        <route edges="1093 -1093 -1029 -728 -11 3 15 119 332 592 642 846"/>
    </vehicle>
    <vehicle id="143" depart="5.72">
        <route edges="1391 -1388 -533 -365 -344 -125 121 326 -313 319 621"/>
    </vehicle>
    <vehicle id="144" depart="5.76">
        <route edges="-1033 -734 -625 -319 -117 -15 -3 7"/>
    </vehicle>
    <vehicle id="145" depart="5.80">
        <route edges="1767 1357 1415 -523 -338 -123 -19 25 126"/>
    </vehicle>
    <vehicle id="146" depart="5.84">
        <route edges="1429 -1429 -1363 1359 -876 -639 -319 -38 -17 25 128 383 579 618 867"/>
    </vehicle>
    <vehicle id="147" depart="5.88">
        <route edges="-867 -618 613 -585 349 379 -379"/>
    </vehicle>
    <vehicle id="148" depart="5.92">
        <route edges="-25 17 38 319 639 876 -1359 1363 1429"/>
    </vehicle>
    <vehicle id="149" depart="5.96">
        <route edges="1391 -1388 -533 -365 -344 -125 -19 -9 11 696"/>
    </vehicle>
    <vehicle id="150" depart="6.00">
        <route edges="-517 -338 -123 125 344 365 569 1391"/>
    </vehicle>
    <vehicle id="151" depart="6.04">
        <route edges="492 570 -125 121 326 -313 319 639 876 -1359 1363 1429 1499 1771"/>
    </vehicle>
    <vehicle id="152" depart="6.08">
        <route edges="-121 123 338 523 -1415 -1357 1494 -1533 -1524 1526 1883 -1783"/>
    </vehicle>
    <vehicle id="153" depart="6.12">
        <route edges="-612 612 1005 -1029 -728 -11 3 15 119 332 592"/>
    </vehicle>
    <vehicle id="154" depart="6.16">
        <route edges="319 -319 -38 -17 25 128 383 577 608"/>
    </vehicle>
    <vehicle id="155" depart="6.20">
        <route edges="-1404 -1345 -1342 -1093 -1029 -728 -11 3 15 117 319 639 880 1494"/>
    </vehicle>
    <vehicle id="156" depart="6.24">
        <route edges="-1388 -533 -365 -344 -125 -19 -9 7"/>
    </vehicle>
    <vehicle id="157" depart="6.28">
        <route edges="1774 -1523 -1429 -1363 1359 -876 -639 -319 -117 -15 -3 11 728 1029 1093 1343"/>
    </vehicle>
    <vehicle id="158" depart="6.32">
        <route edges="1775 -1775 -1501 -1429 -1363 1359 -876 -639 -319 -117 -15 -3 7"/>
    </vehicle>
    <vehicle id="159" depart="6.36">
        <route edges="-1359 1359 -1535 -1494 1357 1415 -523 -338"/>
    </vehicle>
    <vehicle id="160" depart="6.40">
        <route edges="344 -349 -381 383 577 612 1011 1345 1396"/>
    </vehicle>
    <vehicle id="161" depart="6.44">
        <route edges="1501 -1501 -1429 -1363 1359 -876 -639 -319"/>
    </vehicle>
    <vehicle id="162" depart="6.48">
        <route edges="-1517 -1429 1427 1447 -1494 1357 1425"/>
    </vehicle>
    <vehicle id="163" depart="6.52">
        <route edges="1363 -1363 1359 -876 -639 -319 -117 -15 -3 11 728 1029 1093 1342 1345"/>
    </vehicle>
    <vehicle id="164" depart="6.56">
        <route edges="882 -882 -639 -319 313 -326 -121 125 -125"/>
    </vehicle>
    <vehicle id="165" depart="6.60">
        <route edges="589 -1415 -1357 1494 -1533 -1524 1526 1883 -1783"/>
    </vehicle>
    <vehicle id="166" depart="6.64">
        <route edges="-1771 -1499 -1429 -1363 1359 -876 -639 -319 -117 -15 13"/>
    </vehicle>
    <vehicle id="167" depart="6.68">
        <route edges="-128 -25 17 38 319 639 876 -1359 1363 1429 1523 1798 -1773"/>
    </vehicle>
    <vehicle id="168" depart="6.72">
        <route edges="-732 -625 -319 313 -326 -121 125 344 365 569"/>
    </vehicle>
    <vehicle id="169" depart="6.76">
        <route edges="-349 -210 -25 17 38 325 589"/>
    </vehicle>
    <vehicle id="170" depart="6.80">
        <route edges="-379 -344 -125 -19 -9 11"/>
    </vehicle>
    <vehicle id="171" depart="6.84">
        <route edges="-64 38 319 639 876 -1359 1363 1429 1517 -1517"/>
    </vehicle>
    <vehicle id="172" depart="6.88">
        <route edges="-19 -9 11 728 1029 1093 1343"/>
    </vehicle>
    <vehicle id="173" depart="6.92">
        <route edges="-846 -642 674 -837 -732 -625 639 876"/>
    </vehicle>
    <vehicle id="174" depart="6.96">
        <route edges="-1425 1415 -523 -338 -123 -19 25 -25"/>
    </vehicle>
    <vehicle id="175" depart="7.00">
        <route edges="-533 -365 -344 -125 121 326 -313 -117 119 332 592 642 840"/>
    </vehicle>
    <vehicle id="176" depart="7.04">
        <route edges="-313 325 589 -1415 1425 1483"/>
    </vehicle>
    <vehicle id="177" depart="7.08">
        <route edges="-523 -338 -123 -19 -9 11 698 1027 1199 -1199"/>
    </vehicle>
    <vehicle id="178" depart="7.12">
        <route edges="696 -696 -11 3 15 117 319 639 876 -1535 1535"/>
    </vehicle>
    <vehicle id="179" depart="7.16">
        <route edges="618 -618 613 -585 349 379 -492 496"/>
    </vehicle>
    <vehicle id="180" depart="7.20">
        <route edges="-1882 -1523 -1429 -1363 1359 -876 -639 -319 -117 -15 -3 11 -11"/>
    </vehicle>
    <vehicle id="181" depart="7.24">
        <route edges="1011 -1342 -1093 -1029 -728 -11 3 15 117 319 639 876 -1359 1363 1429 1517 -1517"/>
    </vehicle>
    <vehicle id="182" depart="7.28">
        <route edges="-1404 -1345 -1342 -1093 -1029 -728 -11 9 19 123 336 504"/>
    </vehicle>
    <vehicle id="183" depart="7.32">
        <route edges="-732 -625 -319 -38 -17 25 128 383 577 608"/>
    </vehicle>
    <vehicle id="184" depart="7.36">
        <route edges="-650 -592 -332 -119 -15 13 -17 25 128 383 577"/>
    </vehicle>
    <vehicle id="185" depart="7.40">
        <route edges="-1771 -1499 -1429 1427 1447 -1494 1357 1415 -1415"/>
    </vehicle>
    <vehicle id="186" depart="7.44">
        <route edges="1342 -1342 -1093 -1029 -728 -11 3 15 117 319 639 876 -1359 1363 1429 1517 1797"/>
    </vehicle>
    <vehicle id="187" depart="7.48">
        <route edges="17 38 319 639 876 -1535 -1533"/>
    </vehicle>
    <vehicle id="188" depart="7.52">
        <route edges="504 -505 517 -588 -325 319 625"/>
    </vehicle>
    <vehicle id="189" depart="7.56">
        <route edges="-126 -25 -9 11 698 1027"/>
    </vehicle>
    <vehicle id="190" depart="7.60">
        <route edges="-3 3 15 117 319 639 876 -1359 1363 1429 1499"/>
    </vehicle>
    <vehicle id="191" depart="7.64">
        <route edges="11 -11 3 15 117 319 639 876 -1359 1363 1429 -1429"/>
    </vehicle>
    <vehicle id="192" depart="7.68">
        <route edges="505 -505 523 -1415 -1357 1494 -1447 1431"/>
    </vehicle>
    <vehicle id="193" depart="7.72">
        <route edges="-870 -728 -11 3 15 117 319 639 876 -1535 -1447"/>
    </vehicle>
    <vehicle id="194" depart="7.76">
        <route edges="-1483 -1425 1415 -523 -338 -123 -19 -9 11 728 1029 1093 1342 1345"/>
    </vehicle>
    <vehicle id="195" depart="7.80">
        <route edges="128 -128 -25 17 38 319 621"/>
    </vehicle>
    <vehicle id="196" depart="7.84">
        <route edges="674 -837 -330 -119 117 325 588 -517 -338"/>
    </vehicle>
    <vehicle id="197" depart="7.88">
        <route edges="618 -618 -579 -383 -128 -25 19 123 338 523 -1415 1425 1483"/>
    </vehicle>
    <vehicle id="198" depart="7.92">
        <route edges="-1029 -728 -11 3 15 119 330 -732"/>
    </vehicle>
    <vehicle id="199" depart="7.96">
        <route edges="-1774 -1501 -1429 -1363 -1323 -1033 -734 732 837 -674 650 848"/>
    </vehicle>
    <vehicle id="200" depart="8.00">
        <route edges="1501 -1501 -1429 -1363 -1323 -1033 -734 732 837 -674 650 848"/>
    </vehicle>
    <vehicle id="201" depart="8.04">
        <route edges="585 -585 -210 -25 17 38 319 639 876 -1359 1363 1429 1501 1773"/>
    </vehicle>
    <vehicle id="202" depart="8.08">
        <route edges="1431 1524 1533 1535 -876 -639 -319 -117 -15 -3 7"/>
    </vehicle>
    <vehicle id="203" depart="8.12">
        <route edges="1493 1767 -880 -639 -319 -117 -15 -3 11 728 1029 -1029"/>
    </vehicle>
    <vehicle id="204" depart="8.16">
        <route edges="-496 -361 -336 338 523 -1415 -1357 1494 -1447 -1427 1427"/>
    </vehicle>
    <vehicle id="205" depart="8.20">
        <route edges="-1533 1533 1535 -876 -639 -319 -117 -15 -3 11 696 -679"/>
    </vehicle>
    <vehicle id="206" depart="8.24">
        <route edges="-25 17 38 319 639 876 -1359 1363 1429 1523 -1523"/>
    </vehicle>
    <vehicle id="207" depart="8.28">
        <route edges="679 -696 -11 3 15 117 319 639 876 -1535 -1447 1441"/>
    </vehicle>
    <vehicle id="208" depart="8.32">
        <route edges="-734 -625 -319 313 -326 -121 125 344 365"/>
    </vehicle>
    <vehicle id="209" depart="8.36">
        <route edges="870 -679 333 -138 126 -570 570"/>
    </vehicle>
    <vehicle id="210" depart="8.40">
        <route edges="-332 -119 117 313 -326 -121 125 -570 -492"/>
    </vehicle>
    <vehicle id="211" depart="8.44">
        <route edges="1429 -1429 -1363 1359 -876 -639 -319 -117 -15 -3 7 356 -356"/>
    </vehicle>
    <vehicle id="212" depart="8.48">
        <route edges="126 -125 121 326 -313 319 639 876 -1359 1363 1429 1501 -1501"/>
    </vehicle>
    <vehicle id="213" depart="8.52">
        <route edges="-25 17 38 319 639 876 -1535 -1447 1447"/>
    </vehicle>
    <vehicle id="214" depart="8.56">
        <route edges="-867 -618 -579 -383 -128 -25 19 123 338 523 -1415 -1357 -1767"/>
    </vehicle>
    <vehicle id="215" depart="8.60">
        <route edges="-613 -579 -383 -128 -25 17 38 319 639 876 -1359 1363 1429 1499 1771"/>
    </vehicle>
    <vehicle id="216" depart="8.64">
        <route edges="-876 -639 -319 313 -326 -121"/>
    </vehicle>
    <vehicle id="217" depart="8.68">
        <route edges="64 326 -313 319 639 876 -1359 1363 1429 1523 1798 -1773"/>
    </vehicle>
    <vehicle id="218" depart="8.72">
        <route edges="492 570 -125 121 326 -313 319 639 876 -1359 1363 1429 1501 1775"/>
    </vehicle>
    <vehicle id="219" depart="8.76">
        <route edges="569 -569 -365 -344 -125 121 326 -313 -38"/>
    </vehicle>
    <vehicle id="220" depart="8.80">
        <route edges="639 -639 -319 -38 -17 25 210 585 -601 -535"/>
    </vehicle>
    <vehicle id="221" depart="8.84">
        <route edges="336 -336 338 523 -1415 -1357 1494 -1447 -1427 1429 1523 1798 -1798"/>
    </vehicle>
    <vehicle id="222" depart="8.88">
        <route edges="-1011 1005 -1029 -728 -11 3 15 117 319 625"/>
    </vehicle>
    <vehicle id="223" depart="8.92">
        <route edges="1775 -1775 -1501 -1429 -1363 1359 -876 -639 -319 -117 -15 -3 11 696 -679"/>
    </vehicle>
    <vehicle id="224" depart="8.96">
        <route edges="126 -125 123 338 523 -1415 -1357 1357"/>
    </vehicle>
    <vehicle id="225" depart="9.00">
        <route edges="1535 -876 -639 -319 313 -326 -121 125 344 365 533 1388 1464"/>
    </vehicle>
    <vehicle id="226" depart="9.04">
        <route edges="597 -597 -505 523 -1415 -1357 1494 -1447 -1427 1429 -1429"/>
    </vehicle>
    <vehicle id="227" depart="9.08">
        <route edges="-9 3 15 117 319 639 876 -1535 -1533 -1524 1526 1883 -1883"/>
    </vehicle>
    <vehicle id="228" depart="9.12">
        <route edges="-1771 -1499 -1429 -1363 1359 -876 -639 -319 -38 -17 25 128 383 577 -577"/>
    </vehicle>
    <vehicle id="229" depart="9.16">
        <route edges="-1093 -1029 -728 -11 3 15 117 319 639 876 -1535 -1533 -1524"/>
    </vehicle>
    <vehicle id="230" depart="9.20">
        <route edges="1517 -1517 -1429 -1363 1359 -876 -639 -319 313 -326 -121 125 344 365 569 1391"/>
    </vehicle>
    <vehicle id="231" depart="9.24">
        <route edges="-1342 -1093 -1029 -728 -11 3 15 117 319 639 876 -1359 1363 1429 1517 -1769"/>
    </vehicle>
    <vehicle id="232" depart="9.28">
        <route edges="344 -344 -125 123 338 523 -1415 -1357 -880"/>
    </vehicle>
    <vehicle id="233" depart="9.32">
        <route edges="1767 -880 -639 625 732 837 -674 -592"/>