<?xml version="1.0" encoding="UTF-8"?>

<!-- generated on Sun Jun 25 21:54:08 2017 by SUMO netconvert Version 0.28.0
<?xml version="1.0" encoding="UTF-8"?>

<configuration xmlns:xsi="http://www.w3.org/2001/XMLSchema-instance" xsi:noNamespaceSchemaLocation="http://sumo.dlr.de/xsd/netconvertConfiguration.xsd">

    <input>
        <osm-files value="downtown.osm.xml"/>
    </input>

    <output>
        <output-file value="downtown.net.xml"/>
    </output>

    <projection>
        <proj.utm value="true"/>
    </projection>

    <tls_building>
        <tls.discard-simple value="true"/>
        <tls.join value="true"/>
    </tls_building>

    <ramp_guessing>
        <ramps.guess value="true"/>
    </ramp_guessing>

    <edge_removal>
        <remove-edges.by-vclass value="delivery,bicycle,pedestrian"/>
        <remove-edges.isolated value="true"/>
    </edge_removal>

    <processing>
        <geometry.remove value="true"/>
        <roundabouts.guess value="true"/>
        <junctions.join value="true"/>
    </processing>

</configuration>
-->

<net version="0.27" xmlns:xsi="http://www.w3.org/2001/XMLSchema-instance" xsi:noNamespaceSchemaLocation="http://sumo.dlr.de/xsd/net_file.xsd">

    <location netOffset="-632908.27,-5527531.87" convBoundary="0.00,0.00,1181.11,2157.58" origBoundary="-97.149493,49.885239,-97.133099,49.904578" projParameter="+proj=utm +zone=14 +ellps=WGS84 +datum=WGS84 +units=m +no_defs"/>

    <type id="highway.bridleway" priority="1" numLanes="1" speed="2.78" allow="pedestrian" oneway="1" width="2.00"/>
    <type id="highway.bus_guideway" priority="1" numLanes="1" speed="8.33" allow="bus" oneway="1"/>
    <type id="highway.cycleway" priority="1" numLanes="1" speed="5.56" allow="bicycle" oneway="0" width="1.00"/>
    <type id="highway.footway" priority="1" numLanes="1" speed="2.78" allow="pedestrian" oneway="1" width="2.00"/>
    <type id="highway.ford" priority="1" numLanes="1" speed="2.78" allow="army" oneway="0"/>
    <type id="highway.living_street" priority="3" numLanes="1" speed="2.78" disallow="tram rail_urban rail rail_electric ship" oneway="0"/>
    <type id="highway.motorway" priority="13" numLanes="2" speed="44.44" allow="private emergency authority army vip passenger hov taxi bus coach delivery truck trailer motorcycle evehicle custom1 custom2" oneway="1"/>
    <type id="highway.motorway_link" priority="12" numLanes="1" speed="22.22" allow="private emergency authority army vip passenger hov taxi bus coach delivery truck trailer motorcycle evehicle custom1 custom2" oneway="1"/>
    <type id="highway.path" priority="1" numLanes="1" speed="2.78" allow="bicycle pedestrian" oneway="1" width="2.00"/>
    <type id="highway.pedestrian" priority="1" numLanes="1" speed="2.78" allow="pedestrian" oneway="1" width="2.00"/>
    <type id="highway.primary" priority="9" numLanes="2" speed="27.78" disallow="tram rail_urban rail rail_electric ship" oneway="0"/>
    <type id="highway.primary_link" priority="8" numLanes="1" speed="22.22" disallow="tram rail_urban rail rail_electric ship" oneway="0"/>
    <type id="highway.raceway" priority="14" numLanes="2" speed="83.33" allow="vip" oneway="0"/>
    <type id="highway.residential" priority="4" numLanes="1" speed="13.89" disallow="tram rail_urban rail rail_electric ship" oneway="0"/>
    <type id="highway.secondary" priority="7" numLanes="2" speed="27.78" disallow="tram rail_urban rail rail_electric ship" oneway="0"/>
    <type id="highway.secondary_link" priority="6" numLanes="1" speed="22.22" disallow="tram rail_urban rail rail_electric ship" oneway="0"/>
    <type id="highway.service" priority="2" numLanes="1" speed="5.56" allow="delivery bicycle pedestrian" oneway="0"/>
    <type id="highway.services" priority="1" numLanes="1" speed="8.33" disallow="tram rail_urban rail rail_electric ship" oneway="0"/>
    <type id="highway.stairs" priority="1" numLanes="1" speed="1.39" allow="pedestrian" oneway="1" width="2.00"/>
    <type id="highway.step" priority="1" numLanes="1" speed="1.39" allow="pedestrian" oneway="1" width="2.00"/>
    <type id="highway.steps" priority="1" numLanes="1" speed="1.39" allow="pedestrian" oneway="1" width="2.00"/>
    <type id="highway.tertiary" priority="6" numLanes="1" speed="22.22" disallow="tram rail_urban rail rail_electric ship" oneway="0"/>
    <type id="highway.tertiary_link" priority="5" numLanes="1" speed="22.22" disallow="tram rail_urban rail rail_electric ship" oneway="0"/>
    <type id="highway.track" priority="1" numLanes="1" speed="5.56" disallow="tram rail_urban rail rail_electric ship" oneway="0"/>
    <type id="highway.trunk" priority="11" numLanes="2" speed="27.78" disallow="tram rail_urban rail rail_electric bicycle pedestrian ship" oneway="0"/>
    <type id="highway.trunk_link" priority="10" numLanes="1" speed="22.22" disallow="tram rail_urban rail rail_electric bicycle pedestrian ship" oneway="0"/>
    <type id="highway.unclassified" priority="5" numLanes="1" speed="13.89" disallow="tram rail_urban rail rail_electric ship" oneway="0"/>
    <type id="highway.unsurfaced" priority="1" numLanes="1" speed="8.33" disallow="tram rail_urban rail rail_electric ship" oneway="0"/>
    <type id="railway.light_rail" priority="15" numLanes="1" speed="27.78" allow="rail_urban" oneway="1"/>
    <type id="railway.preserved" priority="15" numLanes="1" speed="27.78" allow="rail" oneway="1"/>
    <type id="railway.rail" priority="15" numLanes="1" speed="83.33" allow="rail rail_electric" oneway="1"/>
    <type id="railway.subway" priority="15" numLanes="1" speed="27.78" allow="rail_urban" oneway="1"/>
    <type id="railway.tram" priority="15" numLanes="1" speed="13.89" allow="tram" oneway="1"/>

    <edge id=":1190244918_0" function="internal">
        <lane id=":1190244918_0_0" index="0" disallow="tram rail_urban rail rail_electric ship" speed="22.22" length="2.80" shape="899.25,1019.41 896.73,1020.62"/>
    </edge>
    <edge id=":1190244918_1" function="internal">
        <lane id=":1190244918_1_0" index="0" disallow="tram rail_urban rail rail_electric ship" speed="22.22" length="3.24" shape="897.81,1016.44 894.80,1017.63"/>
    </edge>
    <edge id=":1190261196_0" function="internal">
        <lane id=":1190261196_0_0" index="0" disallow="tram rail_urban rail rail_electric ship" speed="13.89" length="5.02" shape="469.56,1120.36 468.21,1120.07 467.10,1120.29 466.23,1121.01 465.60,1122.24"/>
    </edge>
    <edge id=":1190261196_1" function="internal">
        <lane id=":1190261196_1_0" index="0" disallow="tram rail_urban rail rail_electric ship" speed="13.89" length="9.73" shape="469.56,1120.36 460.49,1116.85"/>
    </edge>
    <edge id=":1190261196_2" function="internal">
        <lane id=":1190261196_2_0" index="0" disallow="tram rail_urban rail rail_electric ship" speed="13.89" length="2.41" shape="469.56,1120.36 468.68,1119.16 468.58,1118.24"/>
    </edge>
    <edge id=":1190261196_10" function="internal">
        <lane id=":1190261196_10_0" index="0" speed="13.89" length="2.41" shape="468.58,1118.24 469.25,1117.61 470.69,1117.26"/>
    </edge>
    <edge id=":1190261196_3" function="internal">
        <lane id=":1190261196_3_0" index="0" disallow="tram rail_urban rail rail_electric ship" speed="13.89" length="5.12" shape="468.84,1113.16 468.54,1114.55 468.75,1115.69 469.47,1116.60 470.69,1117.26"/>
    </edge>
    <edge id=":1190261196_4" function="internal">
        <lane id=":1190261196_4_0" index="0" disallow="tram rail_urban rail rail_electric ship" speed="13.89" length="9.67" shape="468.84,1113.16 465.60,1122.24"/>
        <lane id=":1190261196_4_1" index="1" disallow="tram rail_urban rail rail_electric ship" speed="13.89" length="9.67" shape="465.74,1112.03 462.48,1121.16"/>
    </edge>
    <edge id=":1190261196_6" function="internal">
        <lane id=":1190261196_6_0" index="0" disallow="tram rail_urban rail rail_electric ship" speed="13.89" length="7.94" shape="465.74,1112.03 464.58,1114.60 463.32,1116.26 461.95,1117.01 460.49,1116.85"/>
    </edge>
    <edge id=":1190261196_7" function="internal">
        <lane id=":1190261196_7_0" index="0" disallow="tram rail_urban rail rail_electric ship" speed="13.89" length="9.60" shape="461.73,1113.80 470.69,1117.26"/>
    </edge>
    <edge id=":1190261196_8" function="internal">
        <lane id=":1190261196_8_0" index="0" disallow="tram rail_urban rail rail_electric ship" speed="13.89" length="3.05" shape="461.73,1113.80 462.86,1114.70 463.37,1116.23"/>
    </edge>
    <edge id=":1190261196_9" function="internal">
        <lane id=":1190261196_9_0" index="0" disallow="tram rail_urban rail rail_electric ship" speed="13.89" length="2.41" shape="461.73,1113.80 462.57,1115.03 462.64,1115.95"/>
    </edge>
    <edge id=":1190261196_11" function="internal">
        <lane id=":1190261196_11_0" index="0" speed="13.89" length="5.04" shape="463.37,1116.23 463.24,1118.38 462.48,1121.16"/>
    </edge>
    <edge id=":1190261196_12" function="internal">
        <lane id=":1190261196_12_0" index="0" speed="13.89" length="2.41" shape="462.64,1115.95 461.94,1116.56 460.49,1116.85"/>
    </edge>
    <edge id=":1190261215_0" function="internal">
        <lane id=":1190261215_0_0" index="0" disallow="tram rail_urban rail rail_electric ship" speed="13.89" length="12.27" shape="584.75,1160.63 573.68,1165.93"/>
        <lane id=":1190261215_0_1" index="1" disallow="tram rail_urban rail rail_electric ship" speed="13.89" length="12.27" shape="583.31,1157.66 572.24,1162.96"/>
    </edge>
    <edge id=":1190261215_2" function="internal">
        <lane id=":1190261215_2_0" index="0" disallow="tram rail_urban rail rail_electric ship" speed="18.05" length="11.83" shape="583.31,1157.66 580.04,1159.12 577.51,1159.81 575.04,1159.72 572.00,1158.88"/>
    </edge>
    <edge id=":1190261215_3" function="internal">
        <lane id=":1190261215_3_0" index="0" disallow="tram rail_urban rail rail_electric ship" speed="18.05" length="11.74" shape="573.06,1155.76 576.15,1157.28 577.04,1158.99 575.74,1160.88 572.24,1162.96"/>
    </edge>
    <edge id=":1190261215_4" function="internal">
        <lane id=":1190261215_4_0" index="0" disallow="tram rail_urban rail rail_electric ship" speed="22.22" length="4.82" shape="573.06,1155.76 573.97,1156.94 574.09,1157.86 573.43,1158.50 572.00,1158.88"/>
    </edge>
    <edge id=":128678921_0" function="internal">
        <lane id=":128678921_0_0" index="0" disallow="tram rail_urban rail rail_electric ship" speed="18.05" length="5.03" shape="623.37,1145.36 622.60,1144.21 621.65,1143.58 620.52,1143.47 619.21,1143.89"/>
    </edge>
    <edge id=":128678921_1" function="internal">
        <lane id=":128678921_1_0" index="0" disallow="tram rail_urban rail rail_electric ship" speed="22.22" length="4.82" shape="623.37,1145.36 623.57,1143.89 624.14,1143.16 625.06,1143.18 626.34,1143.93"/>
    </edge>
    <edge id=":128678921_2" function="internal">
        <lane id=":128678921_2_0" index="0" disallow="tram rail_urban rail rail_electric ship" speed="18.05" length="5.02" shape="627.82,1139.81 626.67,1140.56 626.04,1141.49 625.93,1142.62 626.34,1143.93"/>
    </edge>
    <edge id=":128678921_3" function="internal">
        <lane id=":128678921_3_0" index="0" disallow="tram rail_urban rail rail_electric ship" speed="13.89" length="9.56" shape="627.82,1139.81 619.21,1143.89"/>
        <lane id=":128678921_3_1" index="1" disallow="tram rail_urban rail rail_electric ship" speed="13.89" length="9.56" shape="626.43,1136.81 617.77,1140.92"/>
    </edge>
    <edge id=":128681524_0" function="internal">
        <lane id=":128681524_0_0" index="0" disallow="tram rail_urban rail rail_electric ship" speed="22.22" length="4.82" shape="651.68,1313.46 650.83,1314.68 649.99,1315.08 649.18,1314.65 648.38,1313.39"/>
    </edge>
    <edge id=":128687137_0" function="internal">
        <lane id=":128687137_0_0" index="0" disallow="tram rail_urban rail rail_electric ship" speed="13.89" length="16.11" shape="380.17,1085.30 365.10,1079.59"/>
    </edge>
    <edge id=":128687137_1" function="internal">
        <lane id=":128687137_1_0" index="0" disallow="tram rail_urban rail rail_electric ship" speed="13.89" length="3.07" shape="380.17,1085.30 379.04,1084.44 378.56,1082.98 378.57,1082.87"/>
    </edge>
    <edge id=":128687137_2" function="internal">
        <lane id=":128687137_2_0" index="0" disallow="tram rail_urban rail rail_electric ship" speed="13.89" length="2.41" shape="380.17,1085.30 379.30,1084.09 379.21,1083.17"/>
    </edge>
    <edge id=":128687137_12" function="internal">
        <lane id=":128687137_12_0" index="0" speed="13.89" length="4.78" shape="378.57,1082.87 378.72,1080.90 379.53,1078.21"/>
    </edge>
    <edge id=":128687137_13" function="internal">
        <lane id=":128687137_13_0" index="0" speed="13.89" length="2.41" shape="379.21,1083.17 379.89,1082.54 381.34,1082.21"/>
    </edge>
    <edge id=":128687137_3" function="internal">
        <lane id=":128687137_3_0" index="0" disallow="tram rail_urban rail rail_electric ship" speed="13.89" length="5.01" shape="366.28,1076.50 367.61,1076.80 368.73,1076.60 369.61,1075.90 370.28,1074.70"/>
    </edge>
    <edge id=":128687137_4" function="internal">
        <lane id=":128687137_4_0" index="0" disallow="tram rail_urban rail rail_electric ship" speed="13.89" length="16.10" shape="366.28,1076.50 381.34,1082.21"/>
    </edge>
    <edge id=":128687137_5" function="internal">
        <lane id=":128687137_5_0" index="0" disallow="tram rail_urban rail rail_electric ship" speed="13.89" length="2.41" shape="366.28,1076.50 367.14,1077.71 367.23,1078.63"/>
    </edge>
    <edge id=":128687137_14" function="internal">
        <lane id=":128687137_14_0" index="0" speed="13.89" length="2.41" shape="367.23,1078.63 366.55,1079.26 365.10,1079.59"/>
    </edge>
    <edge id=":128687137_6" function="internal">
        <lane id=":128687137_6_0" index="0" disallow="tram rail_urban rail rail_electric ship" speed="13.89" length="5.00" shape="366.90,1083.59 367.20,1082.25 367.00,1081.14 366.30,1080.25 365.10,1079.59"/>
    </edge>
    <edge id=":128687137_7" function="internal">
        <lane id=":128687137_7_0" index="0" disallow="tram rail_urban rail rail_electric ship" speed="13.89" length="9.51" shape="366.90,1083.59 370.28,1074.70"/>
        <lane id=":128687137_7_1" index="1" disallow="tram rail_urban rail rail_electric ship" speed="13.89" length="9.51" shape="369.99,1084.76 373.36,1075.87"/>
        <lane id=":128687137_7_2" index="2" disallow="tram rail_urban rail rail_electric ship" speed="13.89" length="9.51" shape="373.07,1085.93 376.45,1077.04"/>
        <lane id=":128687137_7_3" index="3" disallow="tram rail_urban rail rail_electric ship" speed="13.89" length="9.51" shape="376.16,1087.10 379.53,1078.21"/>
    </edge>
    <edge id=":128687137_11" function="internal">
        <lane id=":128687137_11_0" index="0" disallow="tram rail_urban rail rail_electric ship" speed="13.89" length="7.86" shape="376.16,1087.10 377.33,1084.55 378.59,1082.88 379.92,1082.10 381.34,1082.21"/>
    </edge>
    <edge id=":135278447_0" function="internal">
        <lane id=":135278447_0_0" index="0" disallow="tram rail_urban rail rail_electric ship" speed="13.89" length="4.82" shape="-0.53,942.06 -1.44,940.88 -1.56,939.96 -0.90,939.32 0.53,938.93"/>
    </edge>
    <edge id=":135278451_0" function="internal">
        <lane id=":135278451_0_0" index="0" disallow="tram rail_urban rail rail_electric ship" speed="18.05" length="7.62" shape="561.43,1155.27 554.28,1152.63"/>
    </edge>
    <edge id=":135278451_1" function="internal">
        <lane id=":135278451_1_0" index="0" disallow="tram rail_urban rail rail_electric ship" speed="18.05" length="3.40" shape="561.43,1155.27 559.94,1154.31 559.37,1152.79"/>
    </edge>
    <edge id=":135278451_2" function="internal">
        <lane id=":135278451_2_0" index="0" disallow="tram rail_urban rail rail_electric ship" speed="22.22" length="2.41" shape="561.43,1155.27 560.53,1154.09 560.41,1153.17"/>
    </edge>
    <edge id=":135278451_9" function="internal">
        <lane id=":135278451_9_0" index="0" speed="18.05" length="5.06" shape="559.37,1152.79 559.71,1150.70 560.98,1148.04"/>
    </edge>
    <edge id=":135278451_10" function="internal">
        <lane id=":135278451_10_0" index="0" speed="22.22" length="2.41" shape="560.41,1153.17 561.06,1152.52 562.50,1152.14"/>
    </edge>
    <edge id=":135278451_3" function="internal">
        <lane id=":135278451_3_0" index="0" disallow="tram rail_urban rail rail_electric ship" speed="13.89" length="6.28" shape="555.50,1149.56 557.24,1150.02 558.73,1149.92 559.98,1149.26 560.98,1148.04"/>
    </edge>
    <edge id=":135278451_4" function="internal">
        <lane id=":135278451_4_0" index="0" disallow="tram rail_urban rail rail_electric ship" speed="18.05" length="7.47" shape="555.50,1149.56 562.50,1152.14"/>
    </edge>
    <edge id=":135278451_5" function="internal">
        <lane id=":135278451_5_0" index="0" disallow="tram rail_urban rail rail_electric ship" speed="13.89" length="2.41" shape="555.50,1149.56 556.34,1150.78 556.42,1151.70"/>
    </edge>
    <edge id=":135278451_11" function="internal">
        <lane id=":135278451_11_0" index="0" speed="13.89" length="2.41" shape="556.42,1151.70 555.74,1152.32 554.28,1152.63"/>
    </edge>
    <edge id=":135278451_6" function="internal">
        <lane id=":135278451_6_0" index="0" disallow="tram rail_urban rail rail_electric ship" speed="13.89" length="5.24" shape="555.63,1156.79 556.24,1155.45 556.22,1154.30 555.56,1153.36 554.28,1152.63"/>
    </edge>
    <edge id=":135278451_7" function="internal">
        <lane id=":135278451_7_0" index="0" disallow="tram rail_urban rail rail_electric ship" speed="13.89" length="10.26" shape="555.63,1156.79 560.98,1148.04"/>
    </edge>
    <edge id=":135278451_8" function="internal">
        <lane id=":135278451_8_0" index="0" disallow="tram rail_urban rail rail_electric ship" speed="18.05" length="8.88" shape="555.63,1156.79 557.43,1154.35 559.18,1152.76 560.87,1152.02 562.50,1152.14"/>
    </edge>
    <edge id=":1543808414_0" function="internal">
        <lane id=":1543808414_0_0" index="0" disallow="tram rail_urban rail rail_electric ship" speed="13.89" length="4.82" shape="957.90,853.24 958.75,854.47 958.83,855.38 958.14,856.00 956.69,856.31"/>
    </edge>
    <edge id=":2353754358_0" function="internal">
        <lane id=":2353754358_0_0" index="0" disallow="tram rail_urban rail rail_electric ship" speed="13.89" length="12.96" shape="552.82,1175.81 549.04,1177.12 547.07,1176.58 546.93,1174.20 548.60,1169.97"/>
    </edge>
    <edge id=":25637155#0-AddedOffRampNode_0" function="internal">
        <lane id=":25637155#0-AddedOffRampNode_0_0" index="0" disallow="tram rail_urban rail rail_electric ship" speed="22.22" length="3.71" shape="987.19,971.19 986.04,975.46"/>
        <lane id=":25637155#0-AddedOffRampNode_0_1" index="1" disallow="tram rail_urban rail rail_electric ship" speed="22.22" length="3.71" shape="987.19,971.19 984.51,972.54"/>
    </edge>
    <edge id=":27309728_0" function="internal">
        <lane id=":27309728_0_0" index="0" disallow="tram rail_urban rail rail_electric ship" speed="22.22" length="4.82" shape="308.01,689.30 307.14,688.10 307.05,687.18 307.72,686.55 309.17,686.22"/>
    </edge>
    <edge id=":27331856_0" function="internal">
        <lane id=":27331856_0_0" index="0" disallow="tram rail_urban rail rail_electric ship" speed="22.22" length="16.12" shape="502.70,763.31 487.64,757.55"/>
    </edge>
    <edge id=":27331856_1" function="internal">
        <lane id=":27331856_1_0" index="0" disallow="tram rail_urban rail rail_electric ship" speed="18.05" length="2.97" shape="502.70,763.31 501.58,762.45 501.10,760.97"/>
    </edge>
    <edge id=":27331856_2" function="internal">
        <lane id=":27331856_2_0" index="0" disallow="tram rail_urban rail rail_electric ship" speed="22.22" length="2.41" shape="502.70,763.31 501.84,762.10 501.75,761.18"/>
    </edge>
    <edge id=":27331856_12" function="internal">
        <lane id=":27331856_12_0" index="0" speed="18.05" length="4.94" shape="501.10,760.97 501.27,758.87 502.09,756.16"/>
    </edge>
    <edge id=":27331856_13" function="internal">
        <lane id=":27331856_13_0" index="0" speed="22.22" length="2.41" shape="501.75,761.18 502.43,760.56 503.88,760.23"/>
    </edge>
    <edge id=":27331856_3" function="internal">
        <lane id=":27331856_3_0" index="0" disallow="tram rail_urban rail rail_electric ship" speed="18.05" length="5.01" shape="488.82,754.47 490.16,754.78 491.28,754.58 492.16,753.88 492.82,752.67"/>
    </edge>
    <edge id=":27331856_4" function="internal">
        <lane id=":27331856_4_0" index="0" disallow="tram rail_urban rail rail_electric ship" speed="22.22" length="16.11" shape="488.82,754.47 503.88,760.23"/>
    </edge>
    <edge id=":27331856_5" function="internal">
        <lane id=":27331856_5_0" index="0" disallow="tram rail_urban rail rail_electric ship" speed="22.22" length="2.41" shape="488.82,754.47 489.68,755.68 489.77,756.60"/>
    </edge>
    <edge id=":27331856_14" function="internal">
        <lane id=":27331856_14_0" index="0" speed="22.22" length="2.41" shape="489.77,756.60 489.09,757.23 487.64,757.55"/>
    </edge>
    <edge id=":27331856_6" function="internal">
        <lane id=":27331856_6_0" index="0" disallow="tram rail_urban rail rail_electric ship" speed="18.05" length="5.02" shape="489.45,761.56 489.75,760.23 489.55,759.11 488.85,758.22 487.64,757.55"/>
    </edge>
    <edge id=":27331856_7" function="internal">
        <lane id=":27331856_7_0" index="0" disallow="tram rail_urban rail rail_electric ship" speed="13.89" length="9.54" shape="489.45,761.56 492.82,752.67"/>
        <lane id=":27331856_7_1" index="1" disallow="tram rail_urban rail rail_electric ship" speed="13.89" length="9.54" shape="492.53,762.74 495.91,753.83"/>
        <lane id=":27331856_7_2" index="2" disallow="tram rail_urban rail rail_electric ship" speed="13.89" length="9.54" shape="495.61,763.93 499.00,755.00"/>
        <lane id=":27331856_7_3" index="3" disallow="tram rail_urban rail rail_electric ship" speed="13.89" length="9.54" shape="498.69,765.11 502.09,756.16"/>
    </edge>
    <edge id=":27331856_11" function="internal">
        <lane id=":27331856_11_0" index="0" disallow="tram rail_urban rail rail_electric ship" speed="18.05" length="7.85" shape="498.69,765.11 499.88,762.56 501.13,760.90 502.47,760.12 503.88,760.23"/>
    </edge>
    <edge id=":280395497_0" function="internal">
        <lane id=":280395497_0_0" index="0" disallow="tram rail_urban rail rail_electric ship" speed="25.00" length="5.20" shape="837.84,1053.98 837.07,1055.32 836.62,1056.28 836.27,1057.28 835.76,1058.73"/>
    </edge>
    <edge id=":280395497_1" function="internal">
        <lane id=":280395497_1_0" index="0" disallow="tram rail_urban rail rail_electric ship" speed="27.78" length="5.00" shape="834.42,1052.96 832.66,1057.60"/>
        <lane id=":280395497_1_1" index="1" disallow="tram rail_urban rail rail_electric ship" speed="27.78" length="5.00" shape="831.33,1051.80 829.56,1056.47"/>
        <lane id=":280395497_1_2" index="2" disallow="tram rail_urban rail rail_electric ship" speed="27.78" length="5.00" shape="828.24,1050.65 826.46,1055.33"/>
        <lane id=":280395497_1_3" index="3" disallow="tram rail_urban rail rail_electric ship" speed="27.78" length="5.00" shape="825.14,1049.49 823.36,1054.20"/>
    </edge>
    <edge id=":280395523_0" function="internal">
        <lane id=":280395523_0_0" index="0" disallow="tram rail_urban rail rail_electric ship" speed="22.22" length="4.73" shape="1034.18,1081.88 1033.76,1083.28 1033.11,1083.90 1032.21,1083.75 1031.09,1082.82"/>
    </edge>
    <edge id=":29821665_0" function="internal">
        <lane id=":29821665_0_0" index="0" disallow="tram rail_urban rail rail_electric ship" speed="18.05" length="5.08" shape="592.32,797.48 590.95,797.18 589.81,797.38 588.91,798.08 588.24,799.28"/>
    </edge>
    <edge id=":29821665_1" function="internal">
        <lane id=":29821665_1_0" index="0" disallow="tram rail_urban rail rail_electric ship" speed="22.22" length="9.58" shape="592.32,797.48 583.36,794.11"/>
    </edge>
    <edge id=":29821665_2" function="internal">
        <lane id=":29821665_2_0" index="0" disallow="tram rail_urban rail rail_electric ship" speed="22.22" length="2.41" shape="592.32,797.48 591.45,796.28 591.35,795.36"/>
    </edge>
    <edge id=":29821665_10" function="internal">
        <lane id=":29821665_10_0" index="0" speed="22.22" length="2.41" shape="591.35,795.36 592.03,794.73 593.47,794.39"/>
    </edge>
    <edge id=":29821665_3" function="internal">
        <lane id=":29821665_3_0" index="0" disallow="tram rail_urban rail rail_electric ship" speed="18.05" length="5.02" shape="591.69,790.39 591.37,791.73 591.56,792.84 592.26,793.73 593.47,794.39"/>
    </edge>
    <edge id=":29821665_4" function="internal">
        <lane id=":29821665_4_0" index="0" disallow="tram rail_urban rail rail_electric ship" speed="13.89" length="9.56" shape="591.69,790.39 588.24,799.28"/>
        <lane id=":29821665_4_1" index="1" disallow="tram rail_urban rail rail_electric ship" speed="13.89" length="9.56" shape="588.62,789.17 585.15,798.11"/>
    </edge>
    <edge id=":29821665_6" function="internal">
        <lane id=":29821665_6_0" index="0" disallow="tram rail_urban rail rail_electric ship" speed="18.05" length="7.93" shape="588.62,789.17 587.40,791.74 586.11,793.42 584.77,794.21 583.36,794.11"/>
    </edge>
    <edge id=":29821665_7" function="internal">
        <lane id=":29821665_7_0" index="0" disallow="tram rail_urban rail rail_electric ship" speed="22.22" length="9.55" shape="584.54,791.02 593.47,794.39"/>
    </edge>
    <edge id=":29821665_8" function="internal">
        <lane id=":29821665_8_0" index="0" disallow="tram rail_urban rail rail_electric ship" speed="18.05" length="2.95" shape="584.54,791.02 585.66,791.88 586.14,793.35"/>
    </edge>
    <edge id=":29821665_9" function="internal">
        <lane id=":29821665_9_0" index="0" disallow="tram rail_urban rail rail_electric ship" speed="22.22" length="2.41" shape="584.54,791.02 585.40,792.24 585.49,793.15"/>
    </edge>
    <edge id=":29821665_11" function="internal">
        <lane id=":29821665_11_0" index="0" speed="18.05" length="4.89" shape="586.14,793.35 585.97,795.42 585.15,798.11"/>
    </edge>
    <edge id=":29821665_12" function="internal">
        <lane id=":29821665_12_0" index="0" speed="22.22" length="2.41" shape="585.49,793.15 584.81,793.78 583.36,794.11"/>
    </edge>
    <edge id=":29821826_0" function="internal">
        <lane id=":29821826_0_0" index="0" disallow="tram rail_urban rail rail_electric ship" speed="22.22" length="6.23" shape="684.58,831.83 678.75,829.63"/>
    </edge>
    <edge id=":29821826_1" function="internal">
        <lane id=":29821826_1_0" index="0" disallow="tram rail_urban rail rail_electric ship" speed="18.05" length="2.97" shape="684.58,831.83 683.45,830.97 682.96,829.49"/>
    </edge>
    <edge id=":29821826_2" function="internal">
        <lane id=":29821826_2_0" index="0" disallow="tram rail_urban rail rail_electric ship" speed="22.22" length="2.41" shape="684.58,831.83 683.72,830.61 683.63,829.70"/>
    </edge>
    <edge id=":29821826_9" function="internal">
        <lane id=":29821826_9_0" index="0" speed="18.05" length="4.91" shape="682.96,829.49 683.10,827.40 683.88,824.69"/>
    </edge>
    <edge id=":29821826_10" function="internal">
        <lane id=":29821826_10_0" index="0" speed="22.22" length="2.41" shape="683.63,829.70 684.31,829.07 685.76,828.74"/>
    </edge>
    <edge id=":29821826_3" function="internal">
        <lane id=":29821826_3_0" index="0" disallow="tram rail_urban rail rail_electric ship" speed="18.05" length="5.01" shape="679.90,826.54 681.24,826.83 682.35,826.62 683.23,825.91 683.88,824.69"/>
    </edge>
    <edge id=":29821826_4" function="internal">
        <lane id=":29821826_4_0" index="0" disallow="tram rail_urban rail rail_electric ship" speed="22.22" length="6.26" shape="679.90,826.54 685.76,828.74"/>
    </edge>
    <edge id=":29821826_5" function="internal">
        <lane id=":29821826_5_0" index="0" disallow="tram rail_urban rail rail_electric ship" speed="22.22" length="2.41" shape="679.90,826.54 680.77,827.74 680.87,828.66"/>
    </edge>
    <edge id=":29821826_11" function="internal">
        <lane id=":29821826_11_0" index="0" speed="22.22" length="2.41" shape="680.87,828.66 680.20,829.29 678.75,829.63"/>
    </edge>
    <edge id=":29821826_6" function="internal">
        <lane id=":29821826_6_0" index="0" disallow="tram rail_urban rail rail_electric ship" speed="18.05" length="5.02" shape="680.58,833.63 680.88,832.29 680.67,831.17 679.96,830.29 678.75,829.63"/>
    </edge>
    <edge id=":29821826_7" function="internal">
        <lane id=":29821826_7_0" index="0" disallow="tram rail_urban rail rail_electric ship" speed="13.89" length="9.52" shape="680.58,833.63 683.88,824.69"/>
    </edge>
    <edge id=":29821826_8" function="internal">
        <lane id=":29821826_8_0" index="0" disallow="tram rail_urban rail rail_electric ship" speed="18.05" length="7.86" shape="680.58,833.63 681.75,831.07 683.00,829.41 684.34,828.63 685.76,828.74"/>
    </edge>
    <edge id=":3566508861_0" function="internal">
        <lane id=":3566508861_0_0" index="0" disallow="tram rail_urban rail rail_electric ship" speed="13.89" length="5.03" shape="776.70,867.07 775.35,866.76 774.24,866.95 773.36,867.66 772.71,868.88"/>
    </edge>
    <edge id=":3566508861_1" function="internal">
        <lane id=":3566508861_1_0" index="0" disallow="tram rail_urban rail rail_electric ship" speed="18.05" length="6.31" shape="776.70,867.07 770.82,864.80"/>
    </edge>
    <edge id=":3566508861_2" function="internal">