<?xml version="1.0" encoding="UTF-8"?>

<!-- generated on Sun Jun 25 21:54:45 2017 by SUMO duarouter Version 0.28.0
<?xml version="1.0" encoding="UTF-8"?>

<configuration xmlns:xsi="http://www.w3.org/2001/XMLSchema-instance" xsi:noNamespaceSchemaLocation="http://sumo.dlr.de/xsd/duarouterConfiguration.xsd">

    <input>
        <net-file value="downtown.net.xml"/>
        <trip-files value="trips.trips.xml"/>
    </input>

    <output>
        <output-file value="newRoutes.rou.xml"/>
    </output>

    <processing>
        <ignore-errors value="true"/>
        <repair value="true"/>
    </processing>

</configuration>
-->

<routes xmlns:xsi="http://www.w3.org/2001/XMLSchema-instance" xsi:noNamespaceSchemaLocation="http://sumo.dlr.de/xsd/routes_file.xsd">
  <vType accel="1.0" decel="5.0" id="Car" length="5.0" minGap="2.0" maxSpeed="50.0" sigma="0" />
    <vehicle id="0" type="Car" depart="0.00">
        <route edges="59009656#5 327907991#0 327907991#3 25627604 -32657100#7 32657100#6 25679814#1 136809375#0 282116741#0 32529416#0 32544659#0 160184493#0 32783967#0 136809375#0 282116741#0 130725989#0 130725989#3 476076187 -25585887#2 59009656#5 282116741#0 130725989#0 204921042#0 478034413 160184493#0 32783967#0 282116737 282116739 475055819#0 25585886#2 130725992#4 130725992#9 32657100#6 -25627604 327907991#4 25679814#0 25679814#1 282116737 282116740 136809375#0 282116741#0 130725989#0 130725989#3 15221299#1 473309392 25637155#0 25637155#0-AddedOffRampEdge 103087524#0 130725989#3 476076187 -25585887#2 -25585886#4 -25585886#3 -25585886#2 25585886#2 130725992#4 282116740 136809375#0 282116741#0 32529416#0 -250704022#6 137185080#0 25637155#0 25637155#0-AddedOffRampEdge 25637155#3 478034413 32529416#0 -250704022#6 137185080#0 25637155#0 25637155#0-AddedOffRampEdge 25637155#3 478034413 32529416#0 32544659#0 130725989#0 130725989#3 476076187 -25585887#2 -25585886#4 -25585886#3 130725992#4 130725992#9 32657100#6 -25627604 25627604 -32657100#7 -32657100#5 4691685#1 475055819#0 25585886#2 25585886#3 -25585886#3 25585886#3 25585886#4 25585887#0 476076186 15221299#1 473309392 137185080#2 473309392 25637155#0 25637155#0-AddedOffRampEdge 103087524#0 204921042#0 478034413 160184493#0 282116741#0 130725989#0 130725989#3 476076187 -25585887#2 59009656#5 32783967#0 282116737 282116740 136809375#0 327907991#0 327907991#3 327907991#4 25679814#0 25679814#1 136809375#0 282116741#0 32529416#0 32544659#0 160184493#0 327907991#0 -146645094"/>
    </vehicle>
    <vehicle id="1" type="Car" depart="0.50">
        <route edges="250704022#0 32544659#0 160184493#0 327907991#0 327907991#3 25627604 -25627604 25627604 25679814#1 136809375#0 32783967#0 25679814#6 -25585886#3 130725992#4 130725992#9 32657100#6 -32657100#7 32657100#6 25679814#1 136809375#0 282116741#0 130725989#0 130725989#3 15221299#1 473309392 25637155#0 25637155#0-AddedOffRampEdge 103087524#0 130725989#3 476076187 -25585887#2 -25585886#4 25585886#4 59009656#5 327907991#0 327907991#3 25627604 -32657100#7 32657100#6 25679814#1 282116737 282116740 136809375#0 282116741#0 130725989#0 130725989#3 478034414 204921042#0 478034413 32529416#0 32544659#0 130725989#0 130725989#3 476076187 -25585887#2 -25585886#4 -25585886#3 -25585886#2 25585886#2 25585886#3 25585886#4 25585887#0 476076186 478034414 204921042#0 478034413 160184493#0 32783967#0 136809375#0 327907991#0 327907991#3 25627604 25679814#1 282116737 130725992#9 32657100#6 -25627604 25627604 25679814#1 136809375#0 32783967#0 136809375#0 282116741#0 130725989#0 204921042#0 478034413 32529416#0 -250704022#6 137185080#0 25637155#0 25637155#0-AddedOffRampEdge 103087524#0 130725989#3 476076187 -25585887#2 -25585886#4 -25585886#3 -25585886#2 25585886#2 130725992#4 282116740 282116737 282116740 136809375#0 327907991#0 327907991#3 327907991#4 25679814#0 25679814#1 25679814#6 -25585886#3 -25585886#2 25585886#2 25585886#3 25585886#4 59009656#5 32783967#0 25679814#6 -25585886#3 -25585886#2"/>
    </vehicle>
    <vehicle id="2" type="Car" depart="1.00">
        <route edges="32657100#0 32657100#4 32657100#6 25679814#1 136809375#0 282116741#0 130725989#0 130725989#3 15221299#1 473309392 25637155#0 25637155#0-AddedOffRampEdge 103087524#0 130725989#3 476076187 476076186 478034414 204921042#0 478034413 160184493#0 327907991#0 327907991#3 25627604 25679814#1 136809375#0 282116741#0 130725989#0 130725989#3 478034414 204921042#0 478034413 160184493#0 282116741#0 32529416#0 -250704022#6 137185080#0 25637155#0 25637155#0-AddedOffRampEdge 25637155#3 478034413 160184493#0 327907991#0 327907991#3 327907991#4 25679814#0 -25627604 25627604 25679814#1 136809375#0 282116741#0 32529416#0 -250704022#6 250704022#0 32544659#0 160184493#0 32783967#0 282116737 282116740 25679814#6 25585886#4 -25585886#4 25585886#4 25585887#0 476076186 478034414 204921042#0 478034413 32529416#0 32544659#0 160184493#0 327907991#0 327907991#3 25627604 25679814#1 136809375#0 282116741#0 32529416#0 -250704022#6 137185080#0 25637155#0 25637155#0-AddedOffRampEdge 103087524#0 204921042#0 478034413 160184493#0 327907991#0 327907991#3 25627604 25679814#1 282116737 282116740 25679814#6 -25585886#3 -25585886#2 25585886#2 130725992#4 130725992#9 32657100#6 -25627604 327907991#4 25679814#0 25679814#1 282116737 130725992#9 32657100#6 25679814#1 136809375#0 282116741#0 130725989#0 130725989#3 478034414 130725989#3 15221299#1 473309392 250704021#0 250704022#0 32544659#0 160184493#0 327907991#0 327907991#3 25627604 25679814#1 25679814#6 -25585886#3 -25585886#2 25585886#2 130725992#4 130725992#9 -32657100#5 32657100#4 32657100#6 25679814#1 136809375#0 282116741#0 130725989#0 130725989#3 15221299#1 32783966#1"/>
    </vehicle>
    <vehicle id="3" type="Car" depart="1.50">
        <route edges="130725992#9 32657100#6 25679814#1 25679814#6 25585886#4 25585887#0 204921043#0 28242730#4 476076186 15221299#1 473309392 250704021#0 250704022#0 32544659#0 130725989#0 130725989#3 476076187 -25585887#2 -25585886#4 -25585886#3 25585886#3 25585886#4 25585887#0 476076186 15221299#1 473309392 250704021#0 137185080#0 25637155#0 25637155#0-AddedOffRampEdge 103087524#0 130725989#3 15221299#1 473309392 25637155#0 25637155#0-AddedOffRampEdge 25637155#3 478034413 160184493#0 32783967#0 282116737 282116739 475055819#0 25585886#2 25585886#3 25585886#4 25585887#0 476076186 478034414 204921042#0 478034413 32529416#0 -250704022#6 137185080#0 250704021#0 137185080#0 25637155#0 25637155#0-AddedOffRampEdge 103087524#0 130725989#3 476076187 -25585887#2 25585887#0 476076186 478034414 204921042#0 478034413 32529416#0 -250704022#6 250704022#0 32544659#0 160184493#0 327907991#0 327907991#3 25627604 -32657100#7 -32657100#5 32657100#4 -32657100#5 32657100#4 32657100#6 25679814#1 136809375#0 282116741#0 32529416#0 -250704022#6 137185080#0 25637155#0 25637155#0-AddedOffRampEdge 25637155#3 478034413 130725989#0 130725989#3 476076187 204921043#0 28242730#4 476076186 478034414 204921042#0 478034413 160184493#0 32783967#0 282116737 282116739 32783970 282116740 25679814#6 -25585886#3 130725992#4 130725992#9 -32657100#5 32657100#4 32657100#6 25679814#1 136809375#0 282116741#0 130725989#0 204921042#0 478034413 130725989#0 130725989#3 476076187 -25585887#2 -25585886#4 -25585886#3 -25585886#2 25585886#2 130725992#4"/>
    </vehicle>
    <vehicle id="4" type="Car" depart="2.00">
        <route edges="25585886#3 -25585886#3 130725992#4 130725992#9 32657100#6 25679814#1 136809375#0 282116741#0 130725989#0 130725989#3 478034414 204921042#0 478034413 160184493#0 327907991#0 327907991#3 25627604 -25627604 25627604 25679814#1 136809375#0 282116741#0 130725989#0 130725989#3 15221299#1 473309392 25637155#0 25637155#0-AddedOffRampEdge 25637155#3 478034413 160184493#0 327907991#0 327907991#3 25627604 25679814#1 136809375#0 282116741#0 130725989#0 130725989#3 476076187 204921043#0 28242730#4 476076186 478034414 204921042#0 478034413 160184493#0 327907991#0 327907991#3 25627604 -32657100#7 32657100#6 25679814#1 136809375#0 282116741#0 32529416#0 -250704022#6 137185080#0 25637155#0 25637155#0-AddedOffRampEdge 103087524#0 204921042#0 478034413 160184493#0 327907991#0 327907991#3 25627604 -25627604 25627604 25679814#1 25679814#6 -25585886#3 25585886#3 25585886#4 59009656#5 32783967#0 282116737 282116739 32783970 130725992#9 32657100#6 -25627604 327907991#4 25679814#0 25679814#1 136809375#0 282116741#0 130725989#0 130725989#3 478034414 204921042#0 478034413 32529416#0 32544659#0 130725989#0 130725989#3 476076187 -25585887#2 25585887#0 -25585887#2 -25585886#4 25585886#4 25585887#0 476076186 478034414 204921042#0 478034413 160184493#0 32783967#0 136809375#0 282116741#0 32529416#0 -250704022#6 250704022#0 32544659#0 130725989#0 130725989#3 476076187 -25585887#2 -25585886#4 -25585886#3 -25585886#2 25585886#2 -25585886#2"/>
    </vehicle>
    <vehicle id="5" type="Car" depart="2.50">
        <route edges="25637155#0 25637155#0-AddedOffRampEdge 25637155#3 478034413 160184493#0 282116741#0 160184493#0 32783967#0 282116737 282116740 136809375#0 282116741#0 160184493#0 282116741#0 130725989#0 130725989#3 478034414 130725989#3 476076187 -25585887#2 -25585886#4 -25585886#3 130725992#4 282116740 136809375#0 282116741#0 32529416#0 -250704022#6 137185080#0 250704021#0 137185080#0 25637155#0 25637155#0-AddedOffRampEdge 103087524#0 204921042#0 478034413 32529416#0 -250704022#6 137185080#0 25637155#0 25637155#0-AddedOffRampEdge 25637155#3 478034413 160184493#0 32783967#0 282116737 130725992#9 -32657100#5 4691685#1 32783970 282116740 136809375#0 282116741#0 32529416#0 -250704022#6 137185080#0 25637155#0 25637155#0-AddedOffRampEdge 103087524#0 130725989#3 476076187 -25585887#2 -25585886#4 25585886#4 59009656#5 327907991#0 327907991#3 327907991#4 25679814#0 25679814#1 136809375#0 282116741#0 130725989#0 130725989#3 478034414 130725989#3 476076187 -25585887#2 -25585886#4 -25585886#3 -25585886#2 25585886#2 25585886#3 25585886#4 25585887#0 476076186 478034414 204921042#0 478034413 130725989#0 130725989#3 15221299#1 473309392 25637155#0 25637155#0-AddedOffRampEdge 25637155#3 478034413 130725989#0 130725989#3 476076187 -25585887#2 -25585886#4 -25585886#3 25585886#3 25585886#4 25585887#0 476076186 478034414 204921042#0 478034413 130725989#0 204921042#0 478034413 160184493#0 32783967#0 282116737 282116739 32783970 282116740 136809375#0 327907991#0 327907991#3 25627604 25679814#1 136809375#0 282116741#0 160184493#0 327907991#0 327907991#3 25627604 25679814#1 282116737 282116739 475055819#0 25585886#2 25585886#3 25585886#4 25585887#0 476076186 478034414"/>
    </vehicle>
    <vehicle id="6" type="Car" depart="3.00">
        <route edges="204921043#0 28242730#4 476076186 478034414 204921042#0 478034413 160184493#0 327907991#0 327907991#3 327907991#4 25679814#0 25679814#1 136809375#0 32783967#0 282116737 282116740 136809375#0 327907991#0 327907991#3 25627604 -25627604 25627604 25679814#1 136809375#0 327907991#0 327907991#3 25627604 25679814#1 25679814#6 -25585886#3 -25585886#2 25585886#2 25585886#3 25585886#4 25585887#0 476076186 15221299#1 473309392 25637155#0 25637155#0-AddedOffRampEdge 25637155#3 478034413 32529416#0 32544659#0 160184493#0 282116741#0 130725989#0 130725989#3 15221299#1 473309392 25637155#0 25637155#0-AddedOffRampEdge 25637155#3 478034413 160184493#0 327907991#0 327907991#3 25627604 -32657100#7 32657100#6 25679814#1 136809375#0 282116741#0 130725989#0 130725989#3 476076187 -25585887#2 -25585886#4 25585886#4 25585887#0 476076186 478034414 204921042#0 478034413 32529416#0 -250704022#6 137185080#0 25637155#0 25637155#0-AddedOffRampEdge 103087524#0 130725989#3 476076187 -25585887#2 -25585886#4 25585886#4 25585887#0 476076186 478034414 130725989#3 476076187 204921043#0 28242730#4 476076186 478034414 204921042#0 478034413 160184493#0 32783967#0 136809375#0 327907991#0 327907991#3 25627604 25679814#1 282116737 130725992#9 -32657100#5 32657100#4 32657100#6 25679814#1 136809375#0 282116741#0 130725989#0 130725989#3 476076187 476076186 476076187 -25585887#2"/>
    </vehicle>
    <vehicle id="7" type="Car" depart="3.50">
        <route edges="32529416#0 32544659#0 160184493#0 32783967#0 282116737 282116739 32783970 282116740 136809375#0 327907991#0 327907991#3 25627604 25679814#1 136809375#0 282116741#0 32529416#0 -250704022#6 137185080#0 25637155#0 25637155#0-AddedOffRampEdge 25637155#3 478034413 130725989#0 130725989#3 15221299#1 473309392 25637155#0 25637155#0-AddedOffRampEdge 103087524#0 130725989#3 476076187 -25585887#2 59009656#5 32783967#0 25679814#6 -25585886#3 -25585886#2 25585886#2 130725992#4 282116740 136809375#0 282116741#0 32529416#0 -250704022#6 137185080#0 25637155#0 25637155#0-AddedOffRampEdge 103087524#0 130725989#3 15221299#1 473309392 250704021#0 137185080#0 25637155#0 25637155#0-AddedOffRampEdge 103087524#0 130725989#3 478034414 204921042#0 478034413 160184493#0 327907991#0 327907991#3 25627604 -32657100#7 32657100#6 25679814#1 136809375#0 282116741#0 32529416#0 32544659#0 160184493#0 327907991#0 327907991#3 327907991#4 25679814#0 25679814#1 136809375#0 282116741#0 130725989#0 204921042#0 478034413 160184493#0 32783967#0 282116737 282116739 32783970 282116740 136809375#0 327907991#0 327907991#3 25627604 25679814#1 136809375#0 282116741#0 130725989#0 130725989#3 15221299#1 473309392 25637155#0 25637155#0-AddedOffRampEdge 103087524#0 130725989#3 476076187 204921043#0 28242730#4 476076186 478034414 204921042#0 478034413 160184493#0 32783967#0 282116737 282116739 475055819#0 25585886#2 130725992#4 130725992#9 -32657100#5 4691685#1 32783970 130725992#9 32657100#6 25679814#1 136809375#0 282116741#0 130725989#0 130725989#3 476076187 476076186 478034414 204921042#0 478034413 32529416#0 32544659#0 160184493#0 32783967#0 25679814#6 25679814#10"/>
    </vehicle>
    <vehicle id="8" type="Car" depart="4.00">
        <route edges="136809375#0 32783967#0 282116737 282116739 32783970 282116740 136809375#0 282116741#0 32529416#0 -250704022#6 137185080#0 25637155#0 25637155#0-AddedOffRampEdge 25637155#3 478034413 160184493#0 282116741#0 130725989#0 204921042#0 478034413 130725989#0 204921042#0 478034413 32529416#0 -250704022#6 250704022#0 32544659#0 160184493#0 327907991#0 327907991#3 25627604 -25627604 25627604 25679814#1 282116737 282116739 32783970 282116740 136809375#0 282116741#0 130725989#0 130725989#3 476076187 -25585887#2 -25585886#4 25585886#4 25585887#0 476076186 478034414 204921042#0 478034413 32529416#0 32544659#0 130725989#0 130725989#3 476076187 -25585887#2 -25585886#4 -25585886#3 130725992#4 282116740 136809375#0 282116741#0 32529416#0 -250704022#6 137185080#0 25637155#0 25637155#0-AddedOffRampEdge 103087524#0 130725989#3 15221299#1 473309392 25637155#0 25637155#0-AddedOffRampEdge 25637155#3 478034413 130725989#0 130725989#3 476076187 476076186 478034414 204921042#0 478034413 130725989#0 130725989#3 476076187 -25585887#2 -25585886#4 25585886#4 -25585886#4 25585886#4 25585887#0 476076186 15221299#1 473309392 137185080#2 473309392 25637155#0 25637155#0-AddedOffRampEdge 25637155#3 478034413 160184493#0 32783967#0 136809375#0 282116741#0 130725989#0 204921042#0 478034413 32529416#0 -250704022#6 137185080#0 25637155#0 25637155#0-AddedOffRampEdge 103087524#0 130725989#3 476076187 -25585887#2 -25585886#4"/>
    </vehicle>
    <vehicle id="9" type="Car" depart="4.50">
        <route edges="130725989#0 204921042#0 478034413 160184493#0 327907991#0 327907991#3 25627604 -32657100#7 32657100#6 25679814#1 25679814#6 -25585886#3 130725992#4 130725992#9 32657100#6 -32657100#7 32657100#6 25679814#1 136809375#0 282116741#0 32529416#0 -250704022#6 137185080#0 25637155#0 25637155#0-AddedOffRampEdge 25637155#3 478034413 130725989#0 204921042#0 478034413 160184493#0 282116741#0 160184493#0 327907991#0 327907991#3 25627604 25679814#1 25679814#6 25585886#4 25585887#0 -25585887#2 -25585886#4 -25585886#3 -25585886#2 25585886#2 25585886#3 25585886#4 59009656#5 32783967#0 282116737 282116739 32783970 282116740 136809375#0 282116741#0 130725989#0 130725989#3 476076187 476076186 478034414 204921042#0 478034413 160184493#0 327907991#0 327907991#3 327907991#4 25679814#0 25679814#1 25679814#6 25585886#4 59009656#5 32783967#0 282116737 282116739 475055819#0 25585886#2 25585886#3 25585886#4 25585887#0 476076186 478034414 204921042#0 478034413 130725989#0 130725989#3 476076187 -25585887#2 -25585886#4 -25585886#3 -25585886#2 25585886#2 130725992#4 130725992#9 -32657100#5 4691685#1 32783970 130725992#9 32657100#6 -25627604 25627604 25679814#1 136809375#0 327907991#0 327907991#3 25627604 25679814#1 136809375#0 282116741#0 32529416#0 -250704022#6 250704022#0 32544659#0 160184493#0 327907991#0 327907991#3 25627604 -32657100#7 32657100#6 25679814#1 136809375#0 282116741#0 130725989#0 130725989#3 478034414 204921042#0 478034413 160184493#0 327907991#0 327907991#3 25627604 25679814#1 136809375#0 327907991#0 327907991#3 25627604 -32657100#7"/>
    </vehicle>
    <vehicle id="10" type="Car" depart="5.00">
        <route edges="282116339 32783970 282116740 136809375#0 327907991#0 327907991#3 25627604 25679814#1 25679814#6 -25585886#3 130725992#4 282116740 136809375#0 282116741#0 130725989#0 130725989#3 476076187 204921043#0 28242730#4 -25585887#2 -25585886#4 -25585886#3 -25585886#2 25585886#2 130725992#4 130725992#9 -32657100#5 4691685#1 475055819#0 25585886#2 130725992#4 130725992#9 -32657100#5 32657100#4 32657100#6 -25627604 327907991#4 25679814#0 25679814#1 136809375#0 327907991#0 327907991#3 25627604 25679814#1 25679814#6 25585886#4 -25585886#4 25585886#4 25585887#0 476076186 478034414 130725989#3 478034414 204921042#0 478034413 32529416#0 -250704022#6 250704022#0 32544659#0 160184493#0 32783967#0 282116737 282116740 136809375#0 327907991#0 327907991#3 25627604 -25627604 25627604 -32657100#7 -32657100#5 4691685#1 475055819#0 25585886#2 25585886#3 25585886#4 25585887#0 204921043#0 28242730#4 476076186 478034414 204921042#0 478034413 160184493#0 32783967#0 136809375#0 327907991#0 327907991#3 25627604 25679814#1 25679814#6 -25585886#3 130725992#4 282116740 136809375#0 282116741#0 32529416#0 -250704022#6 250704022#0 32544659#0 130725989#0 130725989#3 476076187 -25585887#2 -25585886#4 25585886#4 59009656#5 327907991#0 327907991#3 327907991#4 25679814#0 25679814#1 282116737 282116740 136809375#0 282116741#0 130725989#0 204921042#0 478034413 130725989#0 130725989#3 476076187 -25585887#2 -25585886#4 25585886#4 -25585886#4 -25585886#3 -25585886#2 -25585886#1"/>
    </vehicle>
    <vehicle id="11" type="Car" depart="5.50">
        <route edges="-25627604 25627604 -32657100#7 32657100#6 25679814#1 136809375#0 282116741#0 130725989#0 130725989#3 476076187 476076186 478034414 204921042#0 478034413 160184493#0 32783967#0 282116737 282116740 136809375#0 282116741#0 130725989#0 204921042#0 478034413 130725989#0 130725989#3 15221299#1 473309392 25637155#0 25637155#0-AddedOffRampEdge 103087524#0 130725989#3 476076187 204921043#0 28242730#4 476076186 478034414 204921042#0 478034413 32529416#0 32544659#0 130725989#0 130725989#3 476076187 -25585887#2 -25585886#4 -25585886#3 25585886#3 25585886#4 25585887#0 -25585887#2 25585887#0 476076186 15221299#1 473309392 25637155#0 25637155#0-AddedOffRampEdge 25637155#3 478034413 160184493#0 32783967#0 282116737 282116740 136809375#0 282116741#0 130725989#0 130725989#3 15221299#1 473309392 250704021#0 250704022#0 32544659#0 160184493#0 327907991#0 327907991#3 25627604 25679814#1 25679814#6 25585886#4 -25585886#4 25585886#4 25585887#0 476076186 478034414 204921042#0 478034413 130725989#0 204921042#0 478034413 160184493#0 327907991#0 327907991#3 25627604 25679814#1 136809375#0 32783967#0 136809375#0 282116741#0 32529416#0 -250704022#6 137185080#0 25637155#0 25637155#0-AddedOffRampEdge 25637155#3 478034413 160184493#0 327907991#0 327907991#3 25627604 25679814#1 25679814#6 -25585886#3 130725992#4 130725992#9 32657100#6 -32657100#7 32657100#6 25679814#1 136809375#0 282116741#0 32529416#0 -250704022#6 137185080#0 25637155#0 25637155#0-AddedOffRampEdge 25637155#3 478034413 160184493#0 32783967#0 282116737 282116740 136809375#0 327907991#0 327907991#3 25627604 25679814#1"/>
    </vehicle>
    <vehicle id="12" type="Car" depart="6.00">
        <route edges="32783970 130725992#9 32657100#6 25679814#1 25679814#6 25585886#4 -25585886#4 25585886#4 59009656#5 327907991#0 327907991#3 25627604 -32657100#7 -32657100#5 4691685#1 475055819#0 25585886#2 130725992#4 282116740 136809375#0 327907991#0 327907991#3 25627604 25679814#1 136809375#0 282116741#0 130725989#0 130725989#3 476076187 476076186 478034414 204921042#0 478034413 160184493#0 32783967#0 282116737 282116740 25679814#6 25585886#4 59009656#5 327907991#0 327907991#3 327907991#4 25679814#0 25679814#1 282116737 282116740 136809375#0 327907991#0 327907991#3 25627604 -32657100#7 32657100#6 25679814#1 136809375#0 282116741#0 32529416#0 -250704022#6 137185080#0 25637155#0 25637155#0-AddedOffRampEdge 25637155#3 478034413 160184493#0 32783967#0 25679814#6 -25585886#3 130725992#4 282116739 475055819#0 25585886#2 130725992#4 282116740 136809375#0 282116741#0 32529416#0 -250704022#6 137185080#0 25637155#0 25637155#0-AddedOffRampEdge 25637155#3 478034413 130725989#0 204921042#0 478034413 160184493#0 327907991#0 327907991#3 25627604 -32657100#7 -32657100#5 32657100#4 32657100#6 25679814#1 136809375#0 282116741#0 130725989#0 204921042#0 478034413 160184493#0 327907991#0 327907991#3 25627604 -25627604 25627604 25679814#1 25679814#6 -25585886#3 -25585886#2 25585886#2 25585886#3 25585886#4 25585887#0 476076186 478034414 130725989#3 478034414 204921042#0 478034413 160184493#0 32783967#0 282116737 130725992#9 32657100#6 25679814#1 25679814#6 -25585886#3 25585886#3 25585886#4 25585887#0 476076186 15221299#1 473309392 250704021#0"/>
    </vehicle>
    <vehicle id="13" type="Car" depart="6.50">
        <route edges="25627604 25679814#1 282116737 282116739 32783970 130725992#9 -32657100#5 4691685#1 475055819#0 25585886#2 25585886#3 25585886#4 25585887#0 204921043#0 28242730#4 476076186 15221299#1 473309392 25637155#0 25637155#0-AddedOffRampEdge 103087524#0 204921042#0 478034413 160184493#0 327907991#0 327907991#3 25627604 25679814#1 282116737 282116739 32783970 282116740 136809375#0 282116741#0 32529416#0 -250704022#6 250704022#0 32544659#0 130725989#0 130725989#3 476076187 -25585887#2 25585887#0 476076186 478034414 204921042#0 478034413 160184493#0 327907991#0 327907991#3 25627604 -32657100#7 -32657100#5 32657100#4 32657100#6 -25627604 25627604 25679814#1 136809375#0 282116741#0 130725989#0 204921042#0 478034413 32529416#0 -250704022#6 137185080#0 25637155#0 25637155#0-AddedOffRampEdge 25637155#3 478034413 160184493#0 327907991#0 327907991#3 25627604 -32657100#7 -32657100#5 4691685#1 32783970 282116740 25679814#6 25585886#4 -25585886#4 -25585886#3 130725992#4 282116740 282116737 282116740 136809375#0 282116741#0 32529416#0 -250704022#6 137185080#0 25637155#0 25637155#0-AddedOffRampEdge 103087524#0 130725989#3 15221299#1 473309392 250704021#0 250704022#0 32544659#0 160184493#0 282116741#0 32529416#0 -250704022#6 137185080#0 25637155#0 25637155#0-AddedOffRampEdge 25637155#3 478034413 160184493#0 282116741#0 130725989#0 130725989#3 476076187 -25585887#2 -25585886#4 -25585886#3 130725992#4 282116740 282116737 282116740 25679814#6 -25585886#3 130725992#4 282116740 282116737"/>
    </vehicle>
    <vehicle id="14" type="Car" depart="7.00">
        <route edges="-32657100#7 32657100#6 25679814#1 136809375#0 282116741#0 32529416#0 -250704022#6 137185080#0 25637155#0 25637155#0-AddedOffRampEdge 25637155#3 478034413 160184493#0 327907991#0 327907991#3 25627604 -25627604 25627604 25679814#1 136809375#0 282116741#0 32529416#0 -250704022#6 137185080#0 25637155#0 25637155#0-AddedOffRampEdge 25637155#3 478034413 160184493#0 327907991#0 327907991#3 25627604 -32657100#7 -32657100#5 32657100#4 32657100#6 25679814#1 25679814#6 25585886#4 -25585886#4 -25585886#3 -25585886#2 25585886#2 25585886#3 25585886#4 25585887#0 476076186 15221299#1 473309392 137185080#2 473309392 25637155#0 25637155#0-AddedOffRampEdge 103087524#0 130725989#3 476076187 476076186 478034414 204921042#0 478034413 130725989#0 130725989#3 478034414 204921042#0 478034413 160184493#0 327907991#0 327907991#3 25627604 25679814#1 136809375#0 282116741#0 32529416#0 -250704022#6 137185080#0 250704021#0 137185080#0 25637155#0 25637155#0-AddedOffRampEdge 103087524#0 130725989#3 476076187 -25585887#2 -25585886#4 -25585886#3 -25585886#2 25585886#2 130725992#4 130725992#9 32657100#6 -25627604 327907991#4 25679814#0 -25627604 25627604 25679814#1 25679814#6 -25585886#3 -25585886#2 25585886#2 130725992#4 130725992#9 32657100#6 -25627604 327907991#4 25679814#0 25679814#1 282116737 130725992#9 -32657100#5 32657100#4 32657100#6 25679814#1 136809375#0 327907991#0 327907991#3 25627604 25679814#1 136809375#0 282116741#0 32529416#0 -250704022#6 137185080#0 25637155#0 25637155#0-AddedOffRampEdge 103087524#0 130725989#3 476076187 -25585887#2 -25585886#4 25585886#4 25585887#0 476076186 478034414 130725989#3 476076187 204921043#0 -35089415#1"/>
    </vehicle>
    <vehicle id="15" type="Car" depart="7.50">
        <route edges="25637155#3 478034413 32529416#0 32544659#0 130725989#0 130725989#3 476076187 204921043#0 28242730#4 476076186 15221299#1 473309392 25637155#0 25637155#0-AddedOffRampEdge 25637155#3 478034413 160184493#0 32783967#0 282116737 282116739 475055819#0 25585886#2 130725992#4 130725992#9 -32657100#5 32657100#4 32657100#6 25679814#1 136809375#0 282116741#0 130725989#0 130725989#3 15221299#1 473309392 25637155#0 25637155#0-AddedOffRampEdge 103087524#0 130725989#3 476076187 -25585887#2 -25585886#4 25585886#4 25585887#0 476076186 15221299#1 473309392 25637155#0 25637155#0-AddedOffRampEdge 103087524#0 130725989#3 476076187 -25585887#2 -25585886#4 -25585886#3 130725992#4 282116740 136809375#0 282116741#0 32529416#0 -250704022#6 137185080#0 25637155#0 25637155#0-AddedOffRampEdge 25637155#3 478034413 130725989#0 130725989#3 476076187 -25585887#2 -25585886#4 -25585886#3 25585886#3 25585886#4 25585887#0 476076186 15221299#1 473309392 25637155#0 25637155#0-AddedOffRampEdge 103087524#0 130725989#3 478034414 204921042#0 478034413 160184493#0 32783967#0 282116737 282116739 475055819#0 25585886#2 25585886#3 25585886#4 25585887#0 476076186 478034414 204921042#0 478034413 32529416#0 32544659#0 130725989#0 130725989#3 476076187 204921043#0 28242730#4 476076186 478034414 204921042#0 478034413 160184493#0 327907991#0 327907991#3 25627604 -32657100#7 -32657100#5 4691685#1 32783970 130725992#9 -32657100#5 4691685#1 32783970 282116740 136809375#0 282116741#0 32529416#0 -250704022#6 137185080#0 25637155#0 25637155#0-AddedOffRampEdge 103087524#0 130725989#3 15221299#1 473309392 25637155#0 25637155#0-AddedOffRampEdge 25637155#3"/>
    </vehicle>
    <vehicle id="16" type="Car" depart="8.00">
        <route edges="473309394#0 25637155#0 25637155#0-AddedOffRampEdge 25637155#3 478034413 160184493#0 327907991#0 327907991#3 25627604 25679814#1 25679814#6 -25585886#3 25585886#3 25585886#4 25585887#0 476076186 478034414 204921042#0 478034413 160184493#0 32783967#0 282116737 282116739 475055819#0 25585886#2 130725992#4 282116740 282116737 282116740 25679814#6 25585886#4 25585887#0 476076186 478034414 204921042#0 478034413 32529416#0 32544659#0 160184493#0 327907991#0 327907991#3 25627604 25679814#1 136809375#0 282116741#0 32529416#0 32544659#0 130725989#0 130725989#3 476076187 -25585887#2 -25585886#4 -25585886#3 -25585886#2 25585886#2 130725992#4 130725992#9 -32657100#5 4691685#1 475055819#0 25585886#2 25585886#3 -25585886#3 130725992#4 130725992#9 32657100#6 -25627604 25627604 25679814#1 136809375#0 282116741#0 130725989#0 130725989#3 476076187 204921043#0 28242730#4 476076186 478034414 204921042#0 478034413 160184493#0 327907991#0 327907991#3 25627604 -32657100#7 -32657100#5 4691685#1 32783970 282116740 136809375#0 282116741#0 32529416#0 -250704022#6 250704022#0 32544659#0 130725989#0 130725989#3 476076187 476076186 476076187 204921043#0 28242730#4 476076186 478034414 204921042#0 478034413 160184493#0 32783967#0 282116737 282116739 475055819#0 25585886#2 25585886#3 25585886#4 59009656#5 327907991#0 327907991#3 25627604 25679814#1 25679814#6 25585886#4 59009656#5 282116741#0 32529416#0 -250704022#6 137185080#0 25637155#0 25637155#0-AddedOffRampEdge 103087524#0 204921042#0 478034413 130725989#0 130725989#3 476076187 204921043#0"/>
    </vehicle>
    <vehicle id="17" type="Car" depart="8.50">
        <route edges="282116739 32783970 282116740 136809375#0 282116741#0 130725989#0 130725989#3 476076187 204921043#0 28242730#4 -25585887#2 -25585886#4 -25585886#3 -25585886#2 25585886#2 25585886#3 25585886#4 -25585886#4 -25585886#3 130725992#4 130725992#9 -32657100#5 4691685#1 32783970 130725992#9 32657100#6 25679814#1 282116737 282116740 136809375#0 282116741#0 130725989#0 130725989#3 476076187 204921043#0 28242730#4 -25585887#2 -25585886#4 -25585886#3 25585886#3 25585886#4 25585887#0 476076186 476076187 -25585887#2 -25585886#4 -25585886#3 25585886#3 25585886#4 59009656#5 327907991#0 327907991#3 25627604 -25627604 25627604 25679814#1 136809375#0 282116741#0 32529416#0 -250704022#6 137185080#0 25637155#0 25637155#0-AddedOffRampEdge 25637155#3 478034413 160184493#0 327907991#0 327907991#3 327907991#4 25679814#0 25679814#1 136809375#0 282116741#0 130725989#0 130725989#3 476076187 476076186 478034414 204921042#0 478034413 160184493#0 32783967#0 25679814#6 25585886#4 59009656#5 327907991#0 327907991#3 25627604 -32657100#7 32657100#6 25679814#1 136809375#0 282116741#0 130725989#0 130725989#3 476076187 476076186 15221299#1 473309392 25637155#0 25637155#0-AddedOffRampEdge 103087524#0 130725989#3 476076187 -25585887#2 -25585886#4 -25585886#3 25585886#3 25585886#4 25585887#0 204921043#0 28242730#4 476076186 478034414 204921042#0 478034413 160184493#0 327907991#0 327907991#3 25627604 -32657100#7 -32657100#5 32657100#4 32657100#6 25679814#1 25679814#6 25585886#4 25585887#0 476076186 478034414 204921042#0 478034413 160184493#0 327907991#0 327907991#3 25627604 -32657100#7"/>
    </vehicle>
    <vehicle id="18" type="Car" depart="9.00">