<?xml version="1.0" encoding="UTF-8"?>

<!-- generated on Sun May 21 16:14:56 2017 by SUMO netgenerate Version 0.28.0
<?xml version="1.0" encoding="UTF-8"?>

<configuration xmlns:xsi="http://www.w3.org/2001/XMLSchema-instance" xsi:noNamespaceSchemaLocation="http://sumo.dlr.de/xsd/netgenerateConfiguration.xsd">

    <random_network>
        <rand value="true"/>
        <rand.iterations value="45"/>
    </random_network>

    <output>
        <output-file value="BasicNetwork.net.xml"/>
    </output>

</configuration>
-->

<net version="0.27" xmlns:xsi="http://www.w3.org/2001/XMLSchema-instance" xsi:noNamespaceSchemaLocation="http://sumo.dlr.de/xsd/net_file.xsd">

    <location netOffset="466.00,565.34" convBoundary="0.00,0.00,1363.66,1318.89" origBoundary="-466.00,-565.34,897.66,753.55" projParameter="!"/>

    <edge id=":1_0" function="internal">
        <lane id=":1_0_0" index="0" speed="13.90" length="5.38" shape="464.44,571.20 464.20,569.68 463.53,568.74 462.43,568.40 460.91,568.64"/>
    </edge>
    <edge id=":1_1" function="internal">
        <lane id=":1_1_0" index="0" speed="13.90" length="10.00" shape="464.44,571.20 464.40,568.24 464.29,566.20 463.98,564.19 463.33,561.30"/>
    </edge>
    <edge id=":1_2" function="internal">
        <lane id=":1_2_0" index="0" speed="13.90" length="5.74" shape="464.44,571.20 464.80,567.90 465.92,565.76"/>
    </edge>
    <edge id=":1_3" function="internal">
        <lane id=":1_3_0" index="0" speed="13.90" length="2.41" shape="464.44,571.20 465.24,569.95 466.06,569.53"/>
    </edge>
    <edge id=":1_16" function="internal">
        <lane id=":1_16_0" index="0" speed="13.90" length="5.59" shape="465.92,565.76 466.02,565.58 468.08,564.24 470.99,563.88"/>
    </edge>
    <edge id=":1_17" function="internal">
        <lane id=":1_17_0" index="0" speed="13.90" length="2.41" shape="466.06,569.53 466.89,569.93 467.74,571.15"/>
    </edge>
    <edge id=":1_4" function="internal">
        <lane id=":1_4_0" index="0" speed="13.90" length="5.81" shape="470.86,567.17 469.47,567.38 468.49,568.11 467.91,569.37 467.74,571.15"/>
    </edge>
    <edge id=":1_5" function="internal">
        <lane id=":1_5_0" index="0" speed="13.90" length="10.15" shape="470.86,567.17 467.87,567.11 465.80,567.28 463.78,567.76 460.91,568.64"/>
    </edge>
    <edge id=":1_6" function="internal">
        <lane id=":1_6_0" index="0" speed="13.90" length="10.35" shape="470.86,567.17 468.07,566.72 465.89,565.59 464.31,563.78 463.33,561.30"/>
    </edge>
    <edge id=":1_7" function="internal">
        <lane id=":1_7_0" index="0" speed="13.90" length="4.82" shape="470.86,567.17 469.66,566.30 469.27,565.46 469.72,564.65 470.99,563.88"/>
    </edge>
    <edge id=":1_8" function="internal">
        <lane id=":1_8_0" index="0" speed="13.90" length="6.03" shape="466.54,560.53 467.11,561.94 468.04,562.97 469.33,563.61 470.99,563.88"/>
    </edge>
    <edge id=":1_9" function="internal">
        <lane id=":1_9_0" index="0" speed="13.90" length="10.72" shape="466.54,560.53 467.21,563.54 467.55,565.79 467.68,568.07 467.74,571.15"/>
    </edge>
    <edge id=":1_10" function="internal">
        <lane id=":1_10_0" index="0" speed="13.90" length="5.16" shape="466.54,560.53 466.72,563.26 465.84,565.52"/>
    </edge>
    <edge id=":1_11" function="internal">
        <lane id=":1_11_0" index="0" speed="13.90" length="2.41" shape="466.54,560.53 466.03,561.93 465.32,562.52"/>
    </edge>
    <edge id=":1_18" function="internal">
        <lane id=":1_18_0" index="0" speed="13.90" length="5.92" shape="465.84,565.52 463.91,567.32 460.91,568.64"/>
    </edge>
    <edge id=":1_19" function="internal">
        <lane id=":1_19_0" index="0" speed="13.90" length="2.41" shape="465.32,562.52 464.42,562.31 463.33,561.30"/>
    </edge>
    <edge id=":1_12" function="internal">
        <lane id=":1_12_0" index="0" speed="13.90" length="6.02" shape="459.93,565.49 461.68,564.75 462.83,563.81 463.38,562.66 463.33,561.30"/>
    </edge>
    <edge id=":1_13" function="internal">
        <lane id=":1_13_0" index="0" speed="13.90" length="11.25" shape="459.93,565.49 462.97,564.59 465.38,564.06 467.82,563.84 470.99,563.88"/>
    </edge>
    <edge id=":1_14" function="internal">
        <lane id=":1_14_0" index="0" speed="13.90" length="11.91" shape="459.93,565.49 463.30,564.95 465.72,565.72 467.20,567.78 467.74,571.15"/>
    </edge>
    <edge id=":1_15" function="internal">
        <lane id=":1_15_0" index="0" speed="13.90" length="4.82" shape="459.93,565.49 461.36,565.91 462.00,566.58 461.85,567.49 460.91,568.64"/>
    </edge>
    <edge id=":10_0" function="internal">
        <lane id=":10_0_0" index="0" speed="13.90" length="4.82" shape="304.20,617.27 302.77,616.85 302.13,616.19 302.28,615.28 303.22,614.12"/>
    </edge>
    <edge id=":115_0" function="internal">
        <lane id=":115_0_0" index="0" speed="13.90" length="5.82" shape="636.99,255.94 636.01,254.50 634.97,253.97 633.87,254.36 632.72,255.67"/>
    </edge>
    <edge id=":115_1" function="internal">
        <lane id=":115_1_0" index="0" speed="13.90" length="11.00" shape="636.99,255.94 635.42,253.40 633.54,251.41 631.34,249.98 628.83,249.11"/>
    </edge>
    <edge id=":115_2" function="internal">
        <lane id=":115_2_0" index="0" speed="13.90" length="2.29" shape="636.99,255.94 637.17,254.47 637.66,253.82"/>
    </edge>
    <edge id=":115_9" function="internal">
        <lane id=":115_9_0" index="0" speed="13.90" length="2.53" shape="637.66,253.82 637.73,253.73 638.65,253.73 639.94,254.47"/>
    </edge>
    <edge id=":115_3" function="internal">
        <lane id=":115_3_0" index="0" speed="13.90" length="13.94" shape="629.55,245.89 632.77,246.99 635.58,248.79 637.97,251.29 639.94,254.47"/>
    </edge>
    <edge id=":115_4" function="internal">
        <lane id=":115_4_0" index="0" speed="13.90" length="7.15" shape="629.55,245.89 632.92,247.20 634.57,249.27 634.55,250.16"/>
    </edge>
    <edge id=":115_5" function="internal">
        <lane id=":115_5_0" index="0" speed="13.90" length="2.65" shape="629.55,245.89 630.58,246.96 630.80,247.85 630.65,248.04"/>
    </edge>
    <edge id=":115_10" function="internal">
        <lane id=":115_10_0" index="0" speed="13.90" length="5.94" shape="634.55,250.16 634.50,252.09 632.72,255.67"/>
    </edge>
    <edge id=":115_11" function="internal">
        <lane id=":115_11_0" index="0" speed="13.90" length="2.17" shape="630.65,248.04 630.22,248.57 628.83,249.11"/>
    </edge>
    <edge id=":115_6" function="internal">
        <lane id=":115_6_0" index="0" speed="13.90" length="6.16" shape="629.98,253.84 630.88,252.08 630.99,250.71 630.31,249.72 628.83,249.11"/>
    </edge>
    <edge id=":115_7" function="internal">
        <lane id=":115_7_0" index="0" speed="13.90" length="13.59" shape="629.98,253.84 632.67,250.78 635.23,249.86 637.65,251.09 639.94,254.47"/>
    </edge>
    <edge id=":115_8" function="internal">
        <lane id=":115_8_0" index="0" speed="13.90" length="4.82" shape="629.98,253.84 631.35,253.27 632.26,253.38 632.72,254.19 632.72,255.67"/>
    </edge>
    <edge id=":118_0" function="internal">
        <lane id=":118_0_0" index="0" speed="13.90" length="12.40" shape="239.70,243.31 236.49,244.20 233.67,244.52 230.80,244.48 227.44,244.25"/>
    </edge>
    <edge id=":118_1" function="internal">
        <lane id=":118_1_0" index="0" speed="13.90" length="5.12" shape="239.70,243.31 237.14,243.61 234.74,242.76"/>
    </edge>
    <edge id=":118_2" function="internal">
        <lane id=":118_2_0" index="0" speed="13.90" length="2.56" shape="239.70,243.31 238.26,242.94 237.60,242.29 237.62,242.14"/>
    </edge>
    <edge id=":118_9" function="internal">
        <lane id=":118_9_0" index="0" speed="13.90" length="7.34" shape="234.74,242.76 234.65,242.72 232.22,240.64 229.87,237.35"/>
    </edge>
    <edge id=":118_10" function="internal">
        <lane id=":118_10_0" index="0" speed="13.90" length="2.26" shape="237.62,242.14 237.71,241.38 238.61,240.19"/>
    </edge>
    <edge id=":118_3" function="internal">
        <lane id=":118_3_0" index="0" speed="13.90" length="7.95" shape="232.71,235.66 234.30,237.99 235.81,239.52 237.25,240.26 238.61,240.19"/>
    </edge>
    <edge id=":118_4" function="internal">
        <lane id=":118_4_0" index="0" speed="13.90" length="14.37" shape="232.71,235.66 234.46,239.69 234.17,242.47 231.83,243.98 227.44,244.25"/>
    </edge>
    <edge id=":118_5" function="internal">
        <lane id=":118_5_0" index="0" speed="13.90" length="4.82" shape="232.71,235.66 232.63,237.15 232.14,237.92 231.22,237.99 229.87,237.35"/>
    </edge>
    <edge id=":118_6" function="internal">
        <lane id=":118_6_0" index="0" speed="13.90" length="6.03" shape="227.66,240.96 229.51,240.85 230.49,240.21 230.61,239.04 229.87,237.35"/>
    </edge>
    <edge id=":118_7" function="internal">
        <lane id=":118_7_0" index="0" speed="13.90" length="11.09" shape="227.66,240.96 230.82,241.21 233.24,241.32 235.61,241.05 238.61,240.19"/>
    </edge>
    <edge id=":118_8" function="internal">
        <lane id=":118_8_0" index="0" speed="13.90" length="2.41" shape="227.66,240.96 228.84,241.86 229.20,242.71"/>
    </edge>
    <edge id=":118_11" function="internal">
        <lane id=":118_11_0" index="0" speed="13.90" length="2.41" shape="229.20,242.71 228.73,243.51 227.44,244.25"/>
    </edge>
    <edge id=":12_0" function="internal">
        <lane id=":12_0_0" index="0" speed="13.90" length="14.55" shape="544.04,396.33 541.61,393.59 538.81,391.35 535.70,389.52 532.33,388.01"/>
    </edge>
    <edge id=":12_1" function="internal">
        <lane id=":12_1_0" index="0" speed="13.90" length="16.21" shape="544.04,396.33 541.85,393.06 539.82,389.43 538.00,385.67 536.49,382.03"/>
    </edge>
    <edge id=":12_2" function="internal">
        <lane id=":12_2_0" index="0" speed="13.90" length="7.19" shape="544.04,396.33 542.27,392.96 541.83,389.60"/>
    </edge>
    <edge id=":12_3" function="internal">
        <lane id=":12_3_0" index="0" speed="13.90" length="6.03" shape="544.04,396.33 542.23,392.81 542.48,390.76"/>
    </edge>
    <edge id=":12_4" function="internal">
        <lane id=":12_4_0" index="0" speed="13.90" length="2.55" shape="544.04,396.33 543.97,394.84 544.38,394.02 544.52,393.99"/>
    </edge>
    <edge id=":12_25" function="internal">
        <lane id=":12_25_0" index="0" speed="13.90" length="8.69" shape="541.83,389.60 541.80,389.38 542.63,385.56 544.75,381.53"/>
    </edge>
    <edge id=":12_26" function="internal">
        <lane id=":12_26_0" index="0" speed="13.90" length="8.69" shape="542.48,390.76 542.57,390.07 545.06,388.08 549.71,386.86"/>
    </edge>
    <edge id=":12_27" function="internal">
        <lane id=":12_27_0" index="0" speed="13.90" length="2.27" shape="544.52,393.99 545.29,393.86 546.69,394.36"/>
    </edge>
    <edge id=":12_5" function="internal">
        <lane id=":12_5_0" index="0" speed="13.90" length="7.14" shape="550.19,390.13 547.72,390.72 546.32,391.62 545.97,392.84 546.69,394.36"/>
    </edge>
    <edge id=":12_6" function="internal">
        <lane id=":12_6_0" index="0" speed="13.90" length="18.12" shape="550.19,390.13 545.96,390.36 541.14,390.03 536.38,389.22 532.33,388.01"/>
    </edge>
    <edge id=":12_7" function="internal">
        <lane id=":12_7_0" index="0" speed="13.90" length="17.39" shape="550.19,390.13 545.57,390.17 541.75,388.84 538.72,386.13 536.49,382.03"/>
    </edge>
    <edge id=":12_8" function="internal">
        <lane id=":12_8_0" index="0" speed="13.90" length="15.81" shape="550.19,390.13 545.20,390.27 542.63,388.89 542.48,385.97 544.75,381.53"/>
    </edge>
    <edge id=":12_9" function="internal">
        <lane id=":12_9_0" index="0" speed="13.90" length="4.82" shape="550.19,390.13 548.84,389.49 548.31,388.73 548.60,387.86 549.71,386.86"/>
    </edge>
    <edge id=":12_10" function="internal">
        <lane id=":12_10_0" index="0" speed="13.90" length="6.44" shape="547.49,383.36 546.57,385.17 546.63,386.36 547.68,386.92 549.71,386.86"/>
    </edge>
    <edge id=":12_11" function="internal">
        <lane id=":12_11_0" index="0" speed="13.90" length="11.80" shape="547.49,383.36 545.85,386.43 545.17,389.29 545.45,391.93 546.69,394.36"/>
    </edge>
    <edge id=":12_12" function="internal">
        <lane id=":12_12_0" index="0" speed="13.90" length="17.37" shape="547.49,383.36 544.43,386.82 540.88,388.74 536.85,389.14 532.33,388.01"/>
    </edge>
    <edge id=":12_13" function="internal">
        <lane id=":12_13_0" index="0" speed="13.90" length="15.91" shape="547.49,383.36 544.31,387.02 541.41,388.02 538.80,386.36 536.49,382.03"/>
    </edge>
    <edge id=":12_14" function="internal">
        <lane id=":12_14_0" index="0" speed="13.90" length="4.82" shape="547.49,383.36 546.12,383.93 545.20,383.82 544.75,383.02 544.75,381.53"/>
    </edge>
    <edge id=":12_15" function="internal">
        <lane id=":12_15_0" index="0" speed="13.90" length="7.50" shape="539.57,380.85 540.66,382.90 541.89,383.70 543.25,383.24 544.75,381.53"/>
    </edge>
    <edge id=":12_16" function="internal">
        <lane id=":12_16_0" index="0" speed="13.90" length="12.88" shape="539.57,380.85 541.22,383.89 543.47,385.90 546.29,386.89 549.71,386.86"/>
    </edge>
    <edge id=":12_17" function="internal">
        <lane id=":12_17_0" index="0" speed="13.90" length="15.31" shape="539.57,380.85 541.02,384.37 542.68,387.85 544.57,391.21 546.69,394.36"/>
    </edge>
    <edge id=":12_18" function="internal">
        <lane id=":12_18_0" index="0" speed="13.90" length="6.42" shape="539.57,380.85 540.82,385.74 540.45,387.06"/>
    </edge>
    <edge id=":12_19" function="internal">
        <lane id=":12_19_0" index="0" speed="13.90" length="2.41" shape="539.57,380.85 539.24,382.30 538.62,382.98"/>
    </edge>
    <edge id=":12_28" function="internal">
        <lane id=":12_28_0" index="0" speed="13.90" length="9.54" shape="540.45,387.06 540.03,388.56 537.20,389.32 532.33,388.01"/>
    </edge>
    <edge id=":12_29" function="internal">
        <lane id=":12_29_0" index="0" speed="13.90" length="2.41" shape="538.62,382.98 537.70,382.89 536.49,382.03"/>
    </edge>
    <edge id=":12_20" function="internal">
        <lane id=":12_20_0" index="0" speed="13.90" length="6.48" shape="533.55,384.94 535.53,385.47 536.68,385.17 537.00,384.02 536.49,382.03"/>
    </edge>
    <edge id=":12_21" function="internal">
        <lane id=":12_21_0" index="0" speed="13.90" length="12.82" shape="533.55,384.94 536.89,385.78 539.87,385.49 542.49,384.07 544.75,381.53"/>
    </edge>
    <edge id=":12_22" function="internal">
        <lane id=":12_22_0" index="0" speed="13.90" length="16.42" shape="533.55,384.94 537.34,386.12 541.51,386.87 545.75,387.13 549.71,386.86"/>
    </edge>
    <edge id=":12_23" function="internal">
        <lane id=":12_23_0" index="0" speed="13.90" length="16.34" shape="533.55,384.94 537.14,386.63 540.74,388.84 544.03,391.45 546.69,394.36"/>
    </edge>
    <edge id=":12_24" function="internal">
        <lane id=":12_24_0" index="0" speed="13.90" length="4.82" shape="533.55,384.94 534.39,386.17 534.47,387.08 533.78,387.70 532.33,388.01"/>
    </edge>
    <edge id=":122_0" function="internal">
        <lane id=":122_0_0" index="0" speed="13.90" length="4.79" shape="911.94,355.87 910.65,355.86 909.61,356.23 908.80,356.99 908.22,358.15"/>
    </edge>
    <edge id=":122_1" function="internal">
        <lane id=":122_1_0" index="0" speed="13.90" length="9.03" shape="911.94,355.87 909.55,355.23 907.70,354.09 906.39,352.45 905.60,350.30"/>
    </edge>
    <edge id=":122_2" function="internal">
        <lane id=":122_2_0" index="0" speed="13.90" length="4.82" shape="911.94,355.87 910.83,354.87 910.55,354.00 911.07,353.24 912.42,352.61"/>
    </edge>
    <edge id=":122_3" function="internal">
        <lane id=":122_3_0" index="0" speed="13.90" length="5.00" shape="908.83,349.61 909.26,350.75 910.00,351.63 911.05,352.25 912.42,352.61"/>
    </edge>
    <edge id=":122_4" function="internal">
        <lane id=":122_4_0" index="0" speed="13.90" length="8.75" shape="908.83,349.61 909.31,352.14 909.38,353.92 909.02,355.69 908.22,358.15"/>
    </edge>
    <edge id=":122_5" function="internal">
        <lane id=":122_5_0" index="0" speed="13.90" length="2.51" shape="908.83,349.61 908.28,350.99 907.56,351.57 907.46,351.54"/>
    </edge>
    <edge id=":122_9" function="internal">
        <lane id=":122_9_0" index="0" speed="13.90" length="2.31" shape="907.46,351.54 906.67,351.34 905.60,350.30"/>
    </edge>
    <edge id=":122_6" function="internal">
        <lane id=":122_6_0" index="0" speed="13.90" length="6.96" shape="905.10,357.09 905.74,355.14 906.03,353.74 905.98,352.31 905.60,350.30"/>
    </edge>
    <edge id=":122_7" function="internal">
        <lane id=":122_7_0" index="0" speed="13.90" length="4.73" shape="905.10,357.09 906.22,354.82 907.82,353.32"/>
    </edge>
    <edge id=":122_8" function="internal">
        <lane id=":122_8_0" index="0" speed="13.90" length="2.41" shape="905.10,357.09 906.27,356.18 907.19,356.05"/>
    </edge>
    <edge id=":122_10" function="internal">
        <lane id=":122_10_0" index="0" speed="13.90" length="4.73" shape="907.82,353.32 909.89,352.58 912.42,352.61"/>
    </edge>
    <edge id=":122_11" function="internal">
        <lane id=":122_11_0" index="0" speed="13.90" length="2.41" shape="907.19,356.05 907.84,356.71 908.22,358.15"/>
    </edge>
    <edge id=":124_0" function="internal">
        <lane id=":124_0_0" index="0" speed="13.90" length="6.99" shape="989.23,641.83 987.83,640.51 986.33,639.86 984.74,639.90 983.04,640.62"/>
    </edge>
    <edge id=":124_1" function="internal">
        <lane id=":124_1_0" index="0" speed="13.90" length="11.11" shape="989.23,641.83 981.91,633.47"/>
    </edge>
    <edge id=":124_2" function="internal">
        <lane id=":124_2_0" index="0" speed="13.90" length="5.20" shape="989.23,641.83 987.50,638.95 987.35,637.11"/>
    </edge>
    <edge id=":124_3" function="internal">
        <lane id=":124_3_0" index="0" speed="13.90" length="2.41" shape="989.23,641.83 989.09,640.35 989.47,639.51"/>
    </edge>
    <edge id=":124_16" function="internal">
        <lane id=":124_16_0" index="0" speed="13.90" length="6.55" shape="987.35,637.11 987.30,636.44 988.61,634.29 991.45,632.49"/>
    </edge>
    <edge id=":124_17" function="internal">
        <lane id=":124_17_0" index="0" speed="13.90" length="2.41" shape="989.47,639.51 990.37,639.31 991.79,639.75"/>
    </edge>
    <edge id=":124_4" function="internal">
        <lane id=":124_4_0" index="0" speed="13.90" length="5.34" shape="992.80,635.50 991.51,636.32 990.91,637.30 991.00,638.44 991.79,639.75"/>
    </edge>
    <edge id=":124_5" function="internal">
        <lane id=":124_5_0" index="0" speed="13.90" length="11.02" shape="992.80,635.50 983.04,640.62"/>
    </edge>
    <edge id=":124_6" function="internal">
        <lane id=":124_6_0" index="0" speed="13.90" length="11.90" shape="992.80,635.50 989.76,636.44 986.93,636.41 984.31,635.42 981.91,633.47"/>
    </edge>
    <edge id=":124_7" function="internal">
        <lane id=":124_7_0" index="0" speed="13.90" length="4.82" shape="992.80,635.50 991.33,635.26 990.62,634.67 990.65,633.75 991.45,632.49"/>
    </edge>
    <edge id=":124_8" function="internal">
        <lane id=":124_8_0" index="0" speed="13.90" length="7.79" shape="984.31,631.20 985.87,632.47 987.58,633.10 989.44,633.11 991.45,632.49"/>
    </edge>
    <edge id=":124_9" function="internal">
        <lane id=":124_9_0" index="0" speed="13.90" length="11.36" shape="984.31,631.20 991.79,639.75"/>
    </edge>
    <edge id=":124_10" function="internal">
        <lane id=":124_10_0" index="0" speed="13.90" length="5.73" shape="984.31,631.20 986.18,633.85 986.59,636.30"/>
    </edge>
    <edge id=":124_11" function="internal">
        <lane id=":124_11_0" index="0" speed="13.90" length="2.53" shape="984.31,631.20 984.56,632.67 984.24,633.53 984.12,633.57"/>
    </edge>
    <edge id=":124_18" function="internal">
        <lane id=":124_18_0" index="0" speed="13.90" length="5.73" shape="986.59,636.30 985.54,638.56 983.04,640.62"/>
    </edge>
    <edge id=":124_19" function="internal">
        <lane id=":124_19_0" index="0" speed="13.90" length="2.29" shape="984.12,633.57 983.36,633.80 981.91,633.47"/>
    </edge>
    <edge id=":124_12" function="internal">
        <lane id=":124_12_0" index="0" speed="13.90" length="5.27" shape="981.33,637.80 982.48,636.85 982.96,635.82 982.77,634.69 981.91,633.47"/>
    </edge>
    <edge id=":124_13" function="internal">
        <lane id=":124_13_0" index="0" speed="13.90" length="11.43" shape="981.33,637.80 991.45,632.49"/>
    </edge>
    <edge id=":124_14" function="internal">
        <lane id=":124_14_0" index="0" speed="13.90" length="11.80" shape="981.33,637.80 984.21,636.57 986.91,636.48 989.44,637.54 991.79,639.75"/>
    </edge>
    <edge id=":124_15" function="internal">
        <lane id=":124_15_0" index="0" speed="13.90" length="4.82" shape="981.33,637.80 982.81,637.86 983.60,638.35 983.67,639.27 983.04,640.62"/>
    </edge>
    <edge id=":127_0" function="internal">
        <lane id=":127_0_0" index="0" speed="13.90" length="7.53" shape="816.65,866.90 814.54,867.64 813.07,868.20 811.80,869.04 810.31,870.65"/>
    </edge>
    <edge id=":127_1" function="internal">
        <lane id=":127_1_0" index="0" speed="13.90" length="5.27" shape="816.65,866.90 813.48,867.61 811.51,867.15"/>
    </edge>
    <edge id=":127_2" function="internal">
        <lane id=":127_2_0" index="0" speed="13.90" length="2.41" shape="816.65,866.90 815.20,866.57 814.52,865.94"/>
    </edge>
    <edge id=":127_9" function="internal">
        <lane id=":127_9_0" index="0" speed="13.90" length="6.20" shape="811.51,867.15 811.06,867.05 809.38,865.21 808.43,862.11"/>
    </edge>
    <edge id=":127_10" function="internal">
        <lane id=":127_10_0" index="0" speed="13.90" length="2.41" shape="814.52,865.94 814.61,865.02 815.48,863.81"/>
    </edge>
    <edge id=":127_3" function="internal">
        <lane id=":127_3_0" index="0" speed="13.90" length="5.28" shape="811.70,861.61 812.13,863.04 812.90,863.88 814.02,864.14 815.48,863.81"/>
    </edge>
    <edge id=":127_4" function="internal">
        <lane id=":127_4_0" index="0" speed="13.90" length="9.39" shape="811.70,861.61 811.96,864.50 811.82,866.97 811.27,869.02 810.31,870.65"/>
    </edge>
    <edge id=":127_5" function="internal">
        <lane id=":127_5_0" index="0" speed="13.90" length="4.82" shape="811.70,861.61 811.07,862.96 810.31,863.49 809.44,863.21 808.43,862.11"/>
    </edge>
    <edge id=":127_6" function="internal">
        <lane id=":127_6_0" index="0" speed="13.90" length="6.64" shape="807.76,868.56 808.32,867.52 808.63,866.09 808.66,864.29 808.43,862.11"/>
    </edge>
    <edge id=":127_7" function="internal">
        <lane id=":127_7_0" index="0" speed="13.90" length="9.26" shape="807.76,868.56 809.58,866.57 811.10,865.48 812.89,864.74 815.48,863.81"/>
    </edge>
    <edge id=":127_8" function="internal">
        <lane id=":127_8_0" index="0" speed="13.90" length="2.57" shape="807.76,868.56 809.18,868.12 810.08,868.33 810.15,868.48"/>
    </edge>
    <edge id=":127_11" function="internal">
        <lane id=":127_11_0" index="0" speed="13.90" length="2.25" shape="810.15,868.48 810.46,869.17 810.31,870.65"/>
    </edge>
    <edge id=":137_0" function="internal">
        <lane id=":137_0_0" index="0" speed="13.90" length="15.81" shape="621.94,875.35 617.99,877.51 614.22,878.38 610.63,877.96 607.21,876.26"/>
    </edge>
    <edge id=":137_1" function="internal">
        <lane id=":137_1_0" index="0" speed="13.90" length="8.91" shape="621.94,875.35 617.60,877.66 614.70,877.56 614.15,876.62"/>
    </edge>
    <edge id=":137_2" function="internal">
        <lane id=":137_2_0" index="0" speed="13.90" length="2.63" shape="621.94,875.35 620.45,875.38 619.64,874.94 619.61,874.72"/>
    </edge>
    <edge id=":137_9" function="internal">
        <lane id=":137_9_0" index="0" speed="13.90" length="6.72" shape="614.15,876.62 613.24,875.06 613.21,870.15"/>
    </edge>
    <edge id=":137_10" function="internal">
        <lane id=":137_10_0" index="0" speed="13.90" length="2.19" shape="619.61,874.72 619.51,874.03 620.05,872.64"/>
    </edge>
    <edge id=":137_3" function="internal">
        <lane id=":137_3_0" index="0" speed="13.90" length="6.39" shape="616.49,870.52 616.50,872.52 617.10,873.55 618.28,873.59 620.05,872.64"/>
    </edge>
    <edge id=":137_4" function="internal">
        <lane id=":137_4_0" index="0" speed="13.90" length="14.64" shape="616.49,870.52 615.43,875.14 613.53,877.65 610.79,878.02 607.21,876.26"/>
    </edge>
    <edge id=":137_5" function="internal">
        <lane id=":137_5_0" index="0" speed="13.90" length="4.82" shape="616.49,870.52 615.53,871.65 614.66,871.97 613.89,871.47 613.21,870.15"/>
    </edge>
    <edge id=":137_6" function="internal">
        <lane id=":137_6_0" index="0" speed="13.90" length="7.01" shape="609.11,873.56 610.66,874.26 611.85,873.92 612.70,872.55 613.21,870.15"/>
    </edge>
    <edge id=":137_7" function="internal">
        <lane id=":137_7_0" index="0" speed="13.90" length="11.75" shape="609.11,873.56 611.59,874.77 614.23,875.02 617.06,874.31 620.05,872.64"/>
    </edge>
    <edge id=":137_8" function="internal">
        <lane id=":137_8_0" index="0" speed="13.90" length="2.18" shape="609.11,873.56 609.65,874.95 609.54,875.63"/>
    </edge>
    <edge id=":137_11" function="internal">
        <lane id=":137_11_0" index="0" speed="13.90" length="2.64" shape="609.54,875.63 609.51,875.86 608.70,876.30 607.21,876.26"/>
    </edge>
    <edge id=":14_0" function="internal">
        <lane id=":14_0_0" index="0" speed="13.90" length="7.07" shape="352.68,209.63 351.54,207.50 350.32,206.12 349.03,205.49 347.66,205.61"/>
    </edge>
    <edge id=":14_1" function="internal">
        <lane id=":14_1_0" index="0" speed="13.90" length="13.45" shape="352.68,209.63 351.56,205.77 352.15,203.13 354.45,201.71 358.47,201.52"/>
    </edge>
    <edge id=":14_2" function="internal">
        <lane id=":14_2_0" index="0" speed="13.90" length="4.82" shape="352.68,209.63 352.94,208.16 353.52,207.45 354.44,207.49 355.70,208.29"/>
    </edge>
    <edge id=":14_3" function="internal">
        <lane id=":14_3_0" index="0" speed="13.90" length="5.78" shape="358.19,204.80 356.46,204.89 355.47,205.50 355.22,206.63 355.70,208.29"/>
    </edge>
    <edge id=":14_4" function="internal">
        <lane id=":14_4_0" index="0" speed="13.90" length="10.69" shape="358.19,204.80 355.10,204.52 352.82,204.43 350.59,204.73 347.66,205.61"/>
    </edge>
    <edge id=":14_5" function="internal">
        <lane id=":14_5_0" index="0" speed="13.90" length="2.41" shape="358.19,204.80 357.02,203.88 356.68,203.02"/>
    </edge>
    <edge id=":14_9" function="internal">
        <lane id=":14_9_0" index="0" speed="13.90" length="2.41" shape="356.68,203.02 357.16,202.23 358.47,201.52"/>
    </edge>
    <edge id=":14_6" function="internal">
        <lane id=":14_6_0" index="0" speed="13.90" length="12.06" shape="346.57,202.49 349.72,201.58 352.42,201.23 355.17,201.26 358.47,201.52"/>
    </edge>
    <edge id=":14_7" function="internal">
        <lane id=":14_7_0" index="0" speed="13.90" length="5.29" shape="346.57,202.49 349.27,202.11 351.69,202.95"/>
    </edge>
    <edge id=":14_8" function="internal">
        <lane id=":14_8_0" index="0" speed="13.90" length="2.54" shape="346.57,202.49 348.01,202.86 348.67,203.51 348.65,203.64"/>
    </edge>
    <edge id=":14_10" function="internal">
        <lane id=":14_10_0" index="0" speed="13.90" length="6.75" shape="351.69,202.95 353.84,205.01 355.70,208.29"/>
    </edge>
    <edge id=":14_11" function="internal">
        <lane id=":14_11_0" index="0" speed="13.90" length="2.28" shape="348.65,203.64 348.55,204.42 347.66,205.61"/>
    </edge>
    <edge id=":18_0" function="internal">
        <lane id=":18_0_0" index="0" speed="13.90" length="7.61" shape="859.86,504.31 858.74,503.63 857.15,503.45 855.11,503.79 852.61,504.63"/>
    </edge>
    <edge id=":18_1" function="internal">
        <lane id=":18_1_0" index="0" speed="13.90" length="10.49" shape="859.86,504.31 852.01,497.34"/>
    </edge>
    <edge id=":18_2" function="internal">
        <lane id=":18_2_0" index="0" speed="13.90" length="4.25" shape="859.86,504.31 858.58,502.39 858.12,500.50"/>
    </edge>
    <edge id=":18_3" function="internal">
        <lane id=":18_3_0" index="0" speed="13.90" length="2.30" shape="859.86,504.31 859.61,502.85 859.89,502.08"/>
    </edge>
    <edge id=":18_16" function="internal">
        <lane id=":18_16_0" index="0" speed="13.90" length="6.52" shape="858.12,500.50 858.00,500.05 858.11,497.28 858.91,494.10"/>
    </edge>
    <edge id=":18_17" function="internal">
        <lane id=":18_17_0" index="0" speed="13.90" length="2.51" shape="859.89,502.08 859.92,501.98 860.80,501.71 862.25,502.05"/>
    </edge>
    <edge id=":18_4" function="internal">
        <lane id=":18_4_0" index="0" speed="13.90" length="7.21" shape="862.04,495.15 861.43,497.43 861.26,499.33 861.54,500.87 862.25,502.05"/>
    </edge>
    <edge id=":18_5" function="internal">
        <lane id=":18_5_0" index="0" speed="13.90" length="13.80" shape="862.04,495.15 860.62,498.21 858.57,500.81 855.90,502.95 852.61,504.63"/>
    </edge>
    <edge id=":18_6" function="internal">
        <lane id=":18_6_0" index="0" speed="13.90" length="12.98" shape="862.04,495.15 860.39,498.33 858.17,499.75 855.38,499.42 852.01,497.34"/>
    </edge>
    <edge id=":18_7" function="internal">
        <lane id=":18_7_0" index="0" speed="13.90" length="4.82" shape="862.04,495.15 860.86,496.06 859.95,496.19 859.30,495.53 858.91,494.10"/>
    </edge>
    <edge id=":18_8" function="internal">
        <lane id=":18_8_0" index="0" speed="13.90" length="6.13" shape="854.09,494.78 855.75,495.83 857.10,496.07 858.16,495.49 858.91,494.10"/>
    </edge>