<?xml version="1.0" encoding="UTF-8"?>

<configuration xmlns:xsi="http://www.w3.org/2001/XMLSchema-instance" xsi:noNamespaceSchemaLocation="http://sumo.sf.net/xsd/sumoConfiguration.xsd">

    <input>
        <net-file value="BasicNetwork.net.xml"/>
        <route-files value="BasicRoutes.rou.xml"/>
    </input>

    <time>
        <begin value="0"/>
        <end value="100"/>
    </time>

</configuration>
